4254097
  MOE2005           2D

 44 47  0  0  1  0  0  0  0  0999 V2000
    1.3550   -4.8300    0.0000 C   0  0  0  0  0  0  0  0  0  0  0  0
    1.0920   -3.9960    0.0000 O   0  0  0  0  0  0  0  0  0  0  0  0
    0.4780   -2.3340    0.0000 C   0  0  3  0  0  0  0  0  0  0  0  0
    0.9980   -1.6940    0.0000 C   0  0  0  0  0  0  0  0  0  0  0  0
    1.8130   -1.8240    0.0000 C   0  0  0  0  0  0  0  0  0  0  0  0
    2.1080   -2.5940    0.0000 C   0  0  0  0  0  0  0  0  0  0  0  0
    2.4160   -0.3230    0.0000 C   0  0  0  0  0  0  0  0  0  0  0  0
    3.2660   -0.2550    0.0000 C   0  0  0  0  0  0  0  0  0  0  0  0
    1.8180    0.2980    0.0000 C   0  0  0  0  0  0  0  0  0  0  0  0
    2.4280    1.3530    0.0000 C   0  0  0  0  0  0  0  0  0  0  0  0
    0.8090    1.6910    0.0000 C   0  0  0  0  0  0  0  0  0  0  0  0
    1.3290    2.3320    0.0000 C   0  0  0  0  0  0  0  0  0  0  0  0
    1.0350    3.1020    0.0000 N   0  0  0  0  0  0  0  0  0  0  0  0
    0.1650    2.1400    0.0000 C   0  0  0  0  0  0  0  0  0  0  0  0
   -0.1590    1.2140    0.0000 C   0  0  0  0  0  0  0  0  0  0  0  0
   -0.7550    1.8340    0.0000 O   0  0  0  0  0  0  0  0  0  0  0  0
   -0.9660    0.8960    0.0000 C   0  0  0  0  0  0  0  0  0  0  0  0
   -1.8210    0.8430    0.0000 C   0  0  3  0  0  0  0  0  0  0  0  0
   -2.4940    1.4500    0.0000 O   0  0  0  0  0  0  0  0  0  0  0  0
   -2.4860    2.3560    0.0000 C   0  0  0  0  0  0  0  0  0  0  0  0
   -1.8520    2.9190    0.0000 O   0  0  0  0  0  0  0  0  0  0  0  0
   -3.1030    2.9660    0.0000 C   0  0  0  0  0  0  0  0  0  0  0  0
   -3.9250    2.7870    0.0000 C   0  0  0  0  0  0  0  0  0  0  0  0
   -3.1100    3.8150    0.0000 C   0  0  0  0  0  0  0  0  0  0  0  0
   -1.7340   -0.0400    0.0000 C   0  0  2  0  0  0  0  0  0  0  0  0
   -0.8900   -0.2410    0.0000 C   0  0  0  0  0  0  0  0  0  0  0  0
   -2.4600   -0.4590    0.0000 O   0  0  0  0  0  0  0  0  0  0  0  0
   -1.7340   -0.9050    0.0000 C   0  0  3  0  0  0  0  0  0  0  0  0
   -1.2600   -1.6210    0.0000 C   0  0  3  0  0  0  0  0  0  0  0  0
   -1.9740   -2.1010    0.0000 C   0  0  0  0  0  0  0  0  0  0  0  0
   -0.4590   -2.0060    0.0000 C   0  0  3  0  0  0  0  0  0  0  0  0
   -0.7490   -2.7880    0.0000 C   0  0  0  0  0  0  0  0  0  0  0  0
   -0.3710   -3.5340    0.0000 C   0  0  1  0  0  0  0  0  0  0  0  0
   -1.0060   -4.0700    0.0000 O   0  0  0  0  0  0  0  0  0  0  0  0
    0.3990   -3.8560    0.0000 N   0  0  0  0  0  0  0  0  0  0  0  0
    1.0260   -3.1300    0.0000 C   0  0  0  0  0  0  0  0  0  0  0  0
    1.9060   -3.1770    0.0000 O   0  0  0  0  0  0  0  0  0  0  0  0
    0.3310   -2.4320    0.0000 O   0  0  0  0  0  0  0  0  0  0  0  0
    0.7990    1.6130    0.0000 C   0  0  0  0  0  0  0  0  0  0  0  0
    2.6640    2.8420    0.0000 Cl  0  0  0  0  0  0  0  0  0  0  0  0
    1.3190    2.2530    0.0000 C   0  0  0  0  0  0  0  0  0  0  0  0
    1.0240    3.0240    0.0000 O   0  0  0  0  0  0  0  0  0  0  0  0
    0.5970    4.3590    0.0000 C   0  0  0  0  0  0  0  0  0  0  0  0
    2.1340    2.1230    0.0000 C   0  0  0  0  0  0  0  0  0  0  0  0
  1  2  1  0  0  0  0
  2  3  1  0  0  0  0
  3  4  1  0  0  0  0
  3 33  1  0  0  0  0
  4  5  2  0  0  0  0
  5  6  1  0  0  0  0
  6  7  2  0  0  0  0
  7  8  1  0  0  0  0
  7  9  1  0  0  0  0
  9 10  1  0  0  0  0
 10 11  1  0  0  0  0
 10 44  2  0  0  0  0
 11 12  2  0  0  0  0
 12 39  1  0  0  0  0
 12 13  1  0  0  0  0
 13 14  1  0  0  0  0
 13 15  1  0  0  0  0
 15 17  1  0  0  0  0
 15 16  2  0  0  0  0
 17 18  1  0  0  0  0
 18 25  1  0  0  0  0
 18 19  1  0  0  0  0
 19 20  1  0  0  0  0
 20 22  1  0  0  0  0
 20 21  2  0  0  0  0
 22 23  1  0  0  0  0
 22 24  1  0  0  0  0
 25 28  1  1  0  0  0
 25 26  1  6  0  0  0
 25 27  1  0  0  0  0
 27 28  1  0  0  0  0
 28 29  1  0  0  0  0
 29 30  1  0  0  0  0
 29 31  1  0  0  0  0
 31 32  1  0  0  0  0
 31 38  1  0  0  0  0
 33 32  1  1  0  0  0
 33 34  1  6  0  0  0
 33 35  1  0  0  0  0
 35 36  1  0  0  0  0
 36 38  1  0  0  0  0
 36 37  2  0  0  0  0
 39 41  2  0  0  0  0
 39 40  1  0  0  0  0
 41 42  1  0  0  0  0
 41 44  1  0  0  0  0
 42 43  1  0  0  0  0
M  END
$$$$
4239291
  MOE2005           2D

 19 21  0  0  0  0  0  0  0  0999 V2000
    0.9640   -5.2910    0.0000 C   0  0  0  0  0  0  0  0  0  0  0  0
    1.3970   -3.9610    0.0000 N   0  0  0  0  0  0  0  0  0  0  0  0
    2.7660   -3.6690    0.0000 C   0  0  0  0  0  0  0  0  0  0  0  0
    3.1990   -2.3370    0.0000 C   0  0  0  0  0  0  0  0  0  0  0  0
    2.2620   -1.2960    0.0000 C   0  0  0  0  0  0  0  0  0  0  0  0
    0.8930   -1.5880    0.0000 C   0  0  0  0  0  0  0  0  0  0  0  0
    1.3250   -0.2560    0.0000 C   0  0  0  0  0  0  0  0  0  0  0  0
    0.3890    0.7840    0.0000 C   0  0  0  0  0  0  0  0  0  0  0  0
   -0.9810    0.4920    0.0000 N   0  0  0  0  0  0  0  0  0  0  0  0
   -1.4130   -0.8380    0.0000 C   0  0  0  0  0  0  0  0  0  0  0  0
   -0.4770   -1.8780    0.0000 C   0  0  0  0  0  0  0  0  0  0  0  0
   -1.9170    1.5320    0.0000 C   0  0  0  0  0  0  0  0  0  0  0  0
   -3.2870    1.2420    0.0000 O   0  0  0  0  0  0  0  0  0  0  0  0
   -1.4850    2.8640    0.0000 C   0  0  0  0  0  0  0  0  0  0  0  0
   -0.1530    3.2970    0.0000 C   0  0  0  0  0  0  0  0  0  0  0  0
   -0.1530    4.6970    0.0000 C   0  0  0  0  0  0  0  0  0  0  0  0
   -1.4850    5.1300    0.0000 C   0  0  0  0  0  0  0  0  0  0  0  0
   -2.3080    3.9980    0.0000 O   0  0  0  0  0  0  0  0  0  0  0  0
    0.4600   -2.9200    0.0000 C   0  0  0  0  0  0  0  0  0  0  0  0
  1  2  1  0  0  0  0
  2  3  1  0  0  0  0
  2 19  1  0  0  0  0
  3  4  1  0  0  0  0
  4  5  1  0  0  0  0
  5  6  1  0  0  0  0
  6 11  1  0  0  0  0
  6  7  1  0  0  0  0
  6 19  1  0  0  0  0
  7  8  1  0  0  0  0
  8  9  1  0  0  0  0
  9 10  1  0  0  0  0
  9 12  1  0  0  0  0
 10 11  1  0  0  0  0
 12 14  1  0  0  0  0
 12 13  2  0  0  0  0
 14 15  2  0  0  0  0
 14 18  1  0  0  0  0
 15 16  1  0  0  0  0
 16 17  2  0  0  0  0
 17 18  1  0  0  0  0
M  END
$$$$
858623
  MOE2005           2D

 22 23  0  0  0  0  0  0  0  0999 V2000
   -7.8000    2.9920    0.0000 N   0  0  0  0  0  0  0  0  0  0  0  0
   -2.6040    1.5000    0.0000 C   0  0  0  0  0  0  0  0  0  0  0  0
   -1.3000    0.7500    0.0000 C   0  0  0  0  0  0  0  0  0  0  0  0
   -1.3000   -0.7500    0.0000 C   0  0  0  0  0  0  0  0  0  0  0  0
   -3.9000    0.7460    0.0000 C   0  0  0  0  0  0  0  0  0  0  0  0
    0.0000   -1.5000    0.0000 C   0  0  0  0  0  0  0  0  0  0  0  0
   -7.8000    1.4920    0.0000 C   0  0  0  0  0  0  0  0  0  0  0  0
   -6.4960    0.7420    0.0000 N   0  0  0  0  0  0  0  0  0  0  0  0
   -5.2040    1.4960    0.0000 C   0  0  0  0  0  0  0  0  0  0  0  0
    1.2960   -0.7500    0.0000 C   0  0  0  0  0  0  0  0  0  0  0  0
    0.0000    1.5000    0.0000 C   0  0  0  0  0  0  0  0  0  0  0  0
    1.2960    0.7500    0.0000 C   0  0  0  0  0  0  0  0  0  0  0  0
   -9.0960    3.7420    0.0000 C   0  0  0  0  0  0  0  0  0  0  0  0
   -2.6040    2.7000    0.0000 O   0  0  0  0  0  0  0  0  0  0  0  0
   -0.0040   -3.0000    0.0000 O   0  0  0  0  0  0  0  0  0  0  0  0
    2.6000   -1.4960    0.0000 O   0  0  0  0  0  0  0  0  0  0  0  0
   -9.0960    0.7420    0.0000 C   0  0  0  0  0  0  0  0  0  0  0  0
  -10.3960    1.4920    0.0000 C   0  0  0  0  0  0  0  0  0  0  0  0
  -10.3960    2.9920    0.0000 C   0  0  0  0  0  0  0  0  0  0  0  0
   -9.0960    4.9380    0.0000 C   0  0  0  0  0  0  0  0  0  0  0  0
   -1.0460   -3.5960    0.0000 C   0  0  0  0  0  0  0  0  0  0  0  0
    3.6380   -0.8960    0.0000 C   0  0  0  0  0  0  0  0  0  0  0  0
  1 13  1  0  0  0  0
  1  7  2  0  0  0  0
  2  5  2  0  0  0  0
  2 14  1  0  0  0  0
  2  3  1  0  0  0  0
  3  4  2  0  0  0  0
  3 11  1  0  0  0  0
  4  6  1  0  0  0  0
  5  9  1  0  0  0  0
  6 10  2  0  0  0  0
  6 15  1  0  0  0  0
  7  8  1  0  0  0  0
  7 17  1  0  0  0  0
  8  9  2  0  0  0  0
 10 12  1  0  0  0  0
 10 16  1  0  0  0  0
 11 12  2  0  0  0  0
 13 20  1  0  0  0  0
 13 19  2  0  0  0  0
 15 21  1  0  0  0  0
 16 22  1  0  0  0  0
 17 18  2  0  0  0  0
 18 19  1  0  0  0  0
M  END
$$$$
4254063
  MOE2005           2D

 55 59  0  0  1  0  0  0  0  0999 V2000
   -3.9140   -8.5210    0.0000 C   0  0  0  0  0  0  0  0  0  0  0  0
   -4.8150   -7.7580    0.0000 O   0  0  0  0  0  0  0  0  0  0  0  0
   -5.3890   -6.6960    0.0000 C   0  0  0  0  0  0  0  0  0  0  0  0
   -4.5090   -5.8880    0.0000 C   0  0  0  0  0  0  0  0  0  0  0  0
   -4.7830   -4.7350    0.0000 C   0  0  0  0  0  0  0  0  0  0  0  0
   -5.5170   -3.7850    0.0000 C   0  0  0  0  0  0  0  0  0  0  0  0
   -4.8980   -2.7080    0.0000 C   0  0  0  0  0  0  0  0  0  0  0  0
   -3.9190   -1.9270    0.0000 C   0  0  3  0  0  0  0  0  0  0  0  0
   -2.8140   -2.5300    0.0000 N   0  0  0  0  0  0  0  0  0  0  0  0
   -3.3930   -3.5430    0.0000 C   0  0  0  0  0  0  0  0  0  0  0  0
   -1.8330   -3.3130    0.0000 C   0  0  0  0  0  0  0  0  0  0  0  0
   -2.1300   -4.4790    0.0000 O   0  0  0  0  0  0  0  0  0  0  0  0
   -0.7350   -3.8570    0.0000 C   0  0  3  0  0  0  0  0  0  0  0  0
   -0.4580   -5.0340    0.0000 C   0  0  0  0  0  0  0  0  0  0  0  0
    0.3190   -3.3030    0.0000 N   0  0  0  0  0  0  0  0  0  0  0  0
    1.5090   -3.3310    0.0000 C   0  0  0  0  0  0  0  0  0  0  0  0
    2.0080   -4.4090    0.0000 O   0  0  0  0  0  0  0  0  0  0  0  0
    2.2410   -2.3780    0.0000 C   0  0  3  0  0  0  0  0  0  0  0  0
    3.4050   -2.6460    0.0000 C   0  0  0  0  0  0  0  0  0  0  0  0
    1.9220   -1.2240    0.0000 N   0  0  0  0  0  0  0  0  0  0  0  0
    2.4960   -0.1790    0.0000 C   0  0  0  0  0  0  0  0  0  0  0  0
    3.6540   -0.4810    0.0000 O   0  0  0  0  0  0  0  0  0  0  0  0
    2.0350    0.9460    0.0000 C   0  0  3  0  0  0  0  0  0  0  0  0
    3.1750    1.4080    0.0000 C   0  0  0  0  0  0  0  0  0  0  0  0
    4.2100    2.0200    0.0000 C   0  0  0  0  0  0  0  0  0  0  0  0
    7.5960    2.5120    0.0000 C   0  0  0  0  0  0  0  0  0  0  0  0
    6.4330    2.5120    0.0000 C   0  0  0  0  0  0  0  0  0  0  0  0
    5.8520    1.5030    0.0000 O   0  0  0  0  0  0  0  0  0  0  0  0
    2.7180    6.3970    0.0000 C   0  0  0  0  0  0  0  0  0  0  0  0
    4.4030    5.6910    0.0000 C   0  0  0  0  0  0  0  0  0  0  0  0
    3.1060    5.8730    0.0000 C   0  0  0  0  0  0  0  0  0  0  0  0
    3.8810    4.3820    0.0000 C   0  0  0  0  0  0  0  0  0  0  0  0
    0.6350    4.6990    0.0000 C   0  0  0  0  0  0  0  0  0  0  0  0
   -0.3020    3.7800    0.0000 C   0  0  3  0  0  0  0  0  0  0  0  0
   -1.5440    3.4680    0.0000 N   0  0  0  0  0  0  0  0  0  0  0  0
   -1.9770    4.5890    0.0000 C   0  0  0  0  0  0  0  0  0  0  0  0
   -2.5360    2.6660    0.0000 C   0  0  0  0  0  0  0  0  0  0  0  0
   -3.4600    3.4360    0.0000 O   0  0  0  0  0  0  0  0  0  0  0  0
   -3.2350    1.6090    0.0000 C   0  0  3  0  0  0  0  0  0  0  0  0
   -4.4140    1.8720    0.0000 C   0  0  0  0  0  0  0  0  0  0  0  0
   -3.5540    0.3960    0.0000 N   0  0  0  0  0  0  0  0  0  0  0  0
   -4.1450   -0.6970    0.0000 C   0  0  0  0  0  0  0  0  0  0  0  0
   -5.3300   -0.4990    0.0000 O   0  0  0  0  0  0  0  0  0  0  0  0
    0.2330    2.6560    0.0000 C   0  0  0  0  0  0  0  0  0  0  0  0
    1.1180    3.4090    0.0000 O   0  0  0  0  0  0  0  0  0  0  0  0
    1.0320    1.7000    0.0000 N   0  0  0  0  0  0  0  0  0  0  0  0
    1.9650    2.4100    0.0000 C   0  0  0  0  0  0  0  0  0  0  0  0
    2.7180    4.3820    0.0000 C   0  0  0  0  0  0  0  0  0  0  0  0
    2.1350    5.3890    0.0000 C   0  0  0  0  0  0  0  0  0  0  0  0
    5.8520    3.5190    0.0000 C   0  0  0  0  0  0  0  0  0  0  0  0
    4.6880    3.5190    0.0000 O   0  0  0  0  0  0  0  0  0  0  0  0
    6.4330    4.5270    0.0000 C   0  0  0  0  0  0  0  0  0  0  0  0
    4.4930    3.1930    0.0000 C   0  0  0  0  0  0  0  0  0  0  0  0
   -6.3660   -4.6640    0.0000 C   0  0  0  0  0  0  0  0  0  0  0  0
   -6.2930   -5.8780    0.0000 C   0  0  0  0  0  0  0  0  0  0  0  0
  1  2  1  0  0  0  0
  2  3  1  0  0  0  0
  3  4  1  0  0  0  0
  3 55  2  0  0  0  0
  4  5  2  0  0  0  0
  5  6  1  0  0  0  0
  6  7  1  0  0  0  0
  6 54  2  0  0  0  0
  7  8  1  0  0  0  0
  8 42  1  0  0  0  0
  8  9  1  0  0  0  0
  9 10  1  0  0  0  0
  9 11  1  0  0  0  0
 11 13  1  0  0  0  0
 11 12  2  0  0  0  0
 13 15  1  0  0  0  0
 13 14  1  0  0  0  0
 15 16  1  0  0  0  0
 16 18  1  0  0  0  0
 16 17  2  0  0  0  0
 18 20  1  0  0  0  0
 18 19  1  0  0  0  0
 20 21  1  0  0  0  0
 21 23  1  0  0  0  0
 21 22  2  0  0  0  0
 23 46  1  0  0  0  0
 23 24  1  0  0  0  0
 24 25  1  0  0  0  0
 25 53  2  0  0  0  0
 25 26  1  0  0  0  0
 26 27  2  0  0  0  0
 27 50  1  0  0  0  0
 27 28  1  0  0  0  0
 28 29  1  0  0  0  0
 29 30  1  0  0  0  0
 29 49  2  0  0  0  0
 30 31  2  0  0  0  0
 31 32  1  0  0  0  0
 32 48  2  0  0  0  0
 32 33  1  0  0  0  0
 33 34  1  0  0  0  0
 34 35  1  0  0  0  0
 34 44  1  0  0  0  0
 35 37  1  0  0  0  0
 35 36  1  0  0  0  0
 37 39  1  0  0  0  0
 37 38  2  0  0  0  0
 39 41  1  0  0  0  0
 39 40  1  0  0  0  0
 41 42  1  0  0  0  0
 42 43  2  0  0  0  0
 44 46  1  0  0  0  0
 44 45  2  0  0  0  0
 46 47  1  0  0  0  0
 48 49  1  0  0  0  0
 50 52  2  0  0  0  0
 50 51  1  0  0  0  0
 52 53  1  0  0  0  0
 54 55  1  0  0  0  0
M  END
$$$$
855758
  MOE2005           2D

 59 67  0  0  1  0  0  0  0  0999 V2000
   -3.3830    1.2830    0.0000 C   0  0  2  0  0  0  0  0  0  0  0  0
   -5.5750   -3.5210    0.0000 C   0  0  2  0  0  0  0  0  0  0  0  0
   -7.4000   -5.3000    0.0000 C   0  0  2  0  0  0  0  0  0  0  0  0
   -4.9710    1.7920    0.0000 C   0  0  0  0  0  0  0  0  0  0  0  0
   -7.0040   -3.8920    0.0000 C   0  0  3  0  0  0  0  0  0  0  0  0
   -4.9420   -6.0420    0.0000 C   0  0  2  0  0  0  0  0  0  0  0  0
   -7.8000   -2.6670    0.0000 N   0  0  0  0  0  0  0  0  0  0  0  0
   -4.5420   -4.5960    0.0000 C   0  0  3  0  0  0  0  0  0  0  0  0
   -6.8000   -1.5500    0.0000 C   0  0  0  0  0  0  0  0  0  0  0  0
   -6.3580   -6.4080    0.0000 C   0  0  3  0  0  0  0  0  0  0  0  0
   -5.5000   -2.0750    0.0000 C   0  0  0  0  0  0  0  0  0  0  0  0
   -4.5630    0.3210    0.0000 C   0  0  0  0  0  0  0  0  0  0  0  0
   -5.7040    3.1330    0.0000 C   0  0  0  0  0  0  0  0  0  0  0  0
   -6.0080    0.6830    0.0000 N   0  0  0  0  0  0  0  0  0  0  0  0
   -7.0750   -0.0710    0.0000 C   0  0  0  0  0  0  0  0  0  0  0  0
   -4.3130   -1.1330    0.0000 C   0  0  0  0  0  0  0  0  0  0  0  0
   -3.2290   -3.9330    0.0000 N   0  0  0  0  0  0  0  0  0  0  0  0
   -1.9670    0.4540    0.0000 C   0  0  0  0  0  0  0  0  0  0  0  0
   -7.2000    2.8420    0.0000 C   0  0  0  0  0  0  0  0  0  0  0  0
   -8.2420   -6.5130    0.0000 C   0  0  0  0  0  0  0  0  0  0  0  0
   -5.9420    0.8580    0.0000 C   0  0  0  0  0  0  0  0  0  0  0  0
   -7.4000    1.3210    0.0000 C   0  0  0  0  0  0  0  0  0  0  0  0
   -2.2500    5.2880    0.0000 N   0  0  0  0  0  0  0  0  0  0  0  0
   -4.8790   -2.2040    0.0000 C   0  0  0  0  0  0  0  0  0  0  0  0
   -1.8710    1.9710    0.0000 C   0  0  0  0  0  0  0  0  0  0  0  0
   -6.7580   -7.8540    0.0000 O   0  0  0  0  0  0  0  0  0  0  0  0
   -3.9380   -7.0750    0.0000 C   0  0  0  0  0  0  0  0  0  0  0  0
   -5.4130    4.7790    0.0000 C   0  0  0  0  0  0  0  0  0  0  0  0
   -0.2000    5.2880    0.0000 C   0  0  2  0  0  0  0  0  0  0  0  0
   -1.2330    3.5130    0.0000 C   0  0  3  0  0  0  0  0  0  0  0  0
   -5.7130   -8.9250    0.0000 C   0  0  0  0  0  0  0  0  0  0  0  0
   -3.4170   -2.4830    0.0000 C   0  0  0  0  0  0  0  0  0  0  0  0
   -8.2080   -4.4130    0.0000 O   0  0  0  0  0  0  0  0  0  0  0  0
   -2.4830   -6.7000    0.0000 C   0  0  0  0  0  0  0  0  0  0  0  0
   -1.2330    5.8880    0.0000 C   0  0  0  0  0  0  0  0  0  0  0  0
   -2.2500    4.0880    0.0000 C   0  0  0  0  0  0  0  0  0  0  0  0
   -9.4380   -6.3830    0.0000 O   0  0  0  0  0  0  0  0  0  0  0  0
   -1.9040   -0.7460    0.0000 O   0  0  0  0  0  0  0  0  0  0  0  0
   -3.9210    5.5000    0.0000 C   0  0  0  0  0  0  0  0  0  0  0  0
   -6.0290  -10.0790    0.0000 O   0  0  0  0  0  0  0  0  0  0  0  0
   -0.2000    4.0880    0.0000 C   0  0  0  0  0  0  0  0  0  0  0  0
   -4.8290   -7.5380    0.0000 C   0  0  0  0  0  0  0  0  0  0  0  0
   -9.0000   -2.5750    0.0000 C   0  0  0  0  0  0  0  0  0  0  0  0
   -2.0000   -4.7670    0.0000 C   0  0  0  0  0  0  0  0  0  0  0  0
   -7.6380   -7.8880    0.0000 O   0  0  0  0  0  0  0  0  0  0  0  0
   -0.7040    1.2670    0.0000 O   0  0  0  0  0  0  0  0  0  0  0  0
   -6.1790    2.3380    0.0000 O   0  0  0  0  0  0  0  0  0  0  0  0
   -0.1500    6.4880    0.0000 O   0  0  0  0  0  0  0  0  0  0  0  0
   -8.4170    3.7710    0.0000 C   0  0  0  0  0  0  0  0  0  0  0  0
   -8.8080    0.7420    0.0000 C   0  0  0  0  0  0  0  0  0  0  0  0
    1.1670    4.5830    0.0000 C   0  0  0  0  0  0  0  0  0  0  0  0
   -4.5500   -8.6250    0.0000 C   0  0  0  0  0  0  0  0  0  0  0  0
   -8.3460   -8.8580    0.0000 C   0  0  0  0  0  0  0  0  0  0  0  0
   -7.3000    2.7670    0.0000 C   0  0  0  0  0  0  0  0  0  0  0  0
    0.3630    0.7210    0.0000 C   0  0  0  0  0  0  0  0  0  0  0  0
   -3.7460   -8.0580    0.0000 C   0  0  0  0  0  0  0  0  0  0  0  0
    1.1710    3.3880    0.0000 C   0  0  0  0  0  0  0  0  0  0  0  0
   -9.8290    3.1830    0.0000 C   0  0  0  0  0  0  0  0  0  0  0  0
  -10.0170    1.6710    0.0000 C   0  0  0  0  0  0  0  0  0  0  0  0
  1 18  1  1  0  0  0
  1  4  1  0  0  0  0
  1 12  1  0  0  0  0
  1 25  1  6  0  0  0
  2 11  1  1  0  0  0
  2  8  1  0  0  0  0
  2  5  1  0  0  0  0
  2 24  1  6  0  0  0
  3  5  1  0  0  0  0
  3 20  1  6  0  0  0
  3 10  1  0  0  0  0
  3 33  1  1  0  0  0
  4 13  2  0  0  0  0
  4 14  1  0  0  0  0
  5  7  1  0  0  0  0
  6 10  1  0  0  0  0
  6  8  1  0  0  0  0
  6 27  1  1  0  0  0
  6 42  1  6  0  0  0
  7  9  1  0  0  0  0
  7 43  1  0  0  0  0
  8 17  1  0  0  0  0
  9 11  2  0  0  0  0
  9 15  1  0  0  0  0
 10 26  1  0  0  0  0
 11 16  1  0  0  0  0
 12 16  2  0  0  0  0
 12 21  1  0  0  0  0
 13 28  1  0  0  0  0
 13 19  1  0  0  0  0
 14 22  1  0  0  0  0
 15 21  2  0  0  0  0
 17 32  1  0  0  0  0
 17 44  1  0  0  0  0
 18 38  2  0  0  0  0
 18 46  1  0  0  0  0
 19 49  1  0  0  0  0
 19 22  2  0  0  0  0
 20 37  2  0  0  0  0
 20 45  1  0  0  0  0
 21 47  1  0  0  0  0
 22 50  1  0  0  0  0
 23 39  1  0  0  0  0
 23 36  1  0  0  0  0
 23 35  1  0  0  0  0
 24 32  1  0  0  0  0
 25 30  1  0  0  0  0
 26 31  1  0  0  0  0
 27 34  2  0  0  0  0
 28 39  1  0  0  0  0
 29 41  1  0  0  0  0
 29 48  1  1  0  0  0
 29 51  1  6  0  0  0
 29 35  1  0  0  0  0
 30 36  1  0  0  0  0
 30 41  1  0  0  0  0
 31 52  1  0  0  0  0
 31 40  2  0  0  0  0
 34 44  1  0  0  0  0
 42 56  1  0  0  0  0
 45 53  1  0  0  0  0
 46 55  1  0  0  0  0
 47 54  1  0  0  0  0
 49 58  2  0  0  0  0
 50 59  2  0  0  0  0
 51 57  1  0  0  0  0
 58 59  1  0  0  0  0
M  END
$$$$
855866
  MOE2005           2D

 60 68  0  0  1  0  0  0  0  0999 V2000
   -3.3830    1.2830    0.0000 C   0  0  2  0  0  0  0  0  0  0  0  0
   -5.5750   -3.5210    0.0000 C   0  0  2  0  0  0  0  0  0  0  0  0
   -7.4000   -5.3000    0.0000 C   0  0  2  0  0  0  0  0  0  0  0  0
   -4.9710    1.7920    0.0000 C   0  0  0  0  0  0  0  0  0  0  0  0
   -7.0040   -3.8920    0.0000 C   0  0  3  0  0  0  0  0  0  0  0  0
   -7.8000   -2.6670    0.0000 N   0  0  0  0  0  0  0  0  0  0  0  0
   -4.9420   -6.0420    0.0000 C   0  0  2  0  0  0  0  0  0  0  0  0
   -4.5420   -4.5960    0.0000 C   0  0  3  0  0  0  0  0  0  0  0  0
   -6.8000   -1.5500    0.0000 C   0  0  0  0  0  0  0  0  0  0  0  0
   -6.3580   -6.4080    0.0000 C   0  0  3  0  0  0  0  0  0  0  0  0
   -5.5000   -2.0750    0.0000 C   0  0  0  0  0  0  0  0  0  0  0  0
   -4.5630    0.3210    0.0000 C   0  0  0  0  0  0  0  0  0  0  0  0
   -5.7040    3.1330    0.0000 C   0  0  0  0  0  0  0  0  0  0  0  0
   -6.0080    0.6830    0.0000 N   0  0  0  0  0  0  0  0  0  0  0  0
   -7.0750   -0.0710    0.0000 C   0  0  0  0  0  0  0  0  0  0  0  0
   -4.3130   -1.1330    0.0000 C   0  0  0  0  0  0  0  0  0  0  0  0
   -3.2290   -3.9330    0.0000 N   0  0  0  0  0  0  0  0  0  0  0  0
   -1.9670    0.4540    0.0000 C   0  0  0  0  0  0  0  0  0  0  0  0
   -7.2000    2.8420    0.0000 C   0  0  0  0  0  0  0  0  0  0  0  0
   -8.2420   -6.5130    0.0000 C   0  0  0  0  0  0  0  0  0  0  0  0
   -5.9420    0.8580    0.0000 C   0  0  0  0  0  0  0  0  0  0  0  0
   -7.4000    1.3210    0.0000 C   0  0  0  0  0  0  0  0  0  0  0  0
   -2.2500    5.2880    0.0000 N   0  0  0  0  0  0  0  0  0  0  0  0
   -4.8790   -2.2040    0.0000 C   0  0  0  0  0  0  0  0  0  0  0  0
   -1.8710    1.9710    0.0000 C   0  0  0  0  0  0  0  0  0  0  0  0
   -9.2960   -2.5630    0.0000 C   0  0  0  0  0  0  0  0  0  0  0  0
   -6.7580   -7.8540    0.0000 O   0  0  0  0  0  0  0  0  0  0  0  0
   -3.9380   -7.0750    0.0000 C   0  0  0  0  0  0  0  0  0  0  0  0
   -5.4130    4.7790    0.0000 C   0  0  0  0  0  0  0  0  0  0  0  0
   -0.2000    5.2880    0.0000 C   0  0  2  0  0  0  0  0  0  0  0  0
   -1.2330    3.5130    0.0000 C   0  0  3  0  0  0  0  0  0  0  0  0
   -5.7130   -8.9250    0.0000 C   0  0  0  0  0  0  0  0  0  0  0  0
   -3.4170   -2.4830    0.0000 C   0  0  0  0  0  0  0  0  0  0  0  0
   -8.2080   -4.4130    0.0000 O   0  0  0  0  0  0  0  0  0  0  0  0
   -2.4830   -6.7000    0.0000 C   0  0  0  0  0  0  0  0  0  0  0  0
   -1.2330    5.8880    0.0000 C   0  0  0  0  0  0  0  0  0  0  0  0
   -2.2500    4.0880    0.0000 C   0  0  0  0  0  0  0  0  0  0  0  0
   -9.4380   -6.3830    0.0000 O   0  0  0  0  0  0  0  0  0  0  0  0
   -1.9040   -0.7460    0.0000 O   0  0  0  0  0  0  0  0  0  0  0  0
   -3.9210    5.5000    0.0000 C   0  0  0  0  0  0  0  0  0  0  0  0
   -9.9670   -3.5580    0.0000 O   0  0  0  0  0  0  0  0  0  0  0  0
   -6.0290  -10.0790    0.0000 O   0  0  0  0  0  0  0  0  0  0  0  0
   -0.2000    4.0880    0.0000 C   0  0  0  0  0  0  0  0  0  0  0  0
   -4.8290   -7.5380    0.0000 C   0  0  0  0  0  0  0  0  0  0  0  0
   -2.0000   -4.7670    0.0000 C   0  0  0  0  0  0  0  0  0  0  0  0
   -7.6380   -7.8880    0.0000 O   0  0  0  0  0  0  0  0  0  0  0  0
   -0.7040    1.2670    0.0000 O   0  0  0  0  0  0  0  0  0  0  0  0
   -6.1790    2.3380    0.0000 O   0  0  0  0  0  0  0  0  0  0  0  0
   -0.1500    6.4880    0.0000 O   0  0  0  0  0  0  0  0  0  0  0  0
   -8.4170    3.7710    0.0000 C   0  0  0  0  0  0  0  0  0  0  0  0
   -8.8080    0.7420    0.0000 C   0  0  0  0  0  0  0  0  0  0  0  0
    1.1670    4.5830    0.0000 C   0  0  0  0  0  0  0  0  0  0  0  0
   -4.5500   -8.6250    0.0000 C   0  0  0  0  0  0  0  0  0  0  0  0
   -8.3460   -8.8580    0.0000 C   0  0  0  0  0  0  0  0  0  0  0  0
    0.3630    0.7210    0.0000 C   0  0  0  0  0  0  0  0  0  0  0  0
   -7.3000    2.7670    0.0000 C   0  0  0  0  0  0  0  0  0  0  0  0
   -3.7460   -8.0580    0.0000 C   0  0  0  0  0  0  0  0  0  0  0  0
    1.1710    3.3880    0.0000 C   0  0  0  0  0  0  0  0  0  0  0  0
   -9.8290    3.1830    0.0000 C   0  0  0  0  0  0  0  0  0  0  0  0
  -10.0170    1.6710    0.0000 C   0  0  0  0  0  0  0  0  0  0  0  0
  1 18  1  1  0  0  0
  1  4  1  0  0  0  0
  1 12  1  0  0  0  0
  1 25  1  6  0  0  0
  2 11  1  1  0  0  0
  2  8  1  0  0  0  0
  2  5  1  0  0  0  0
  2 24  1  6  0  0  0
  3  5  1  0  0  0  0
  3 20  1  6  0  0  0
  3 10  1  0  0  0  0
  3 34  1  1  0  0  0
  4 13  2  0  0  0  0
  4 14  1  0  0  0  0
  5  6  1  0  0  0  0
  6  9  1  0  0  0  0
  6 26  1  0  0  0  0
  7 10  1  0  0  0  0
  7  8  1  0  0  0  0
  7 28  1  1  0  0  0
  7 44  1  6  0  0  0
  8 17  1  0  0  0  0
  9 11  2  0  0  0  0
  9 15  1  0  0  0  0
 10 27  1  0  0  0  0
 11 16  1  0  0  0  0
 12 16  2  0  0  0  0
 12 21  1  0  0  0  0
 13 29  1  0  0  0  0
 13 19  1  0  0  0  0
 14 22  1  0  0  0  0
 15 21  2  0  0  0  0
 17 33  1  0  0  0  0
 17 45  1  0  0  0  0
 18 39  2  0  0  0  0
 18 47  1  0  0  0  0
 19 50  1  0  0  0  0
 19 22  2  0  0  0  0
 20 38  2  0  0  0  0
 20 46  1  0  0  0  0
 21 48  1  0  0  0  0
 22 51  1  0  0  0  0
 23 40  1  0  0  0  0
 23 37  1  0  0  0  0
 23 36  1  0  0  0  0
 24 33  1  0  0  0  0
 25 31  1  0  0  0  0
 26 41  2  0  0  0  0
 27 32  1  0  0  0  0
 28 35  2  0  0  0  0
 29 40  1  0  0  0  0
 30 43  1  0  0  0  0
 30 49  1  1  0  0  0
 30 52  1  6  0  0  0
 30 36  1  0  0  0  0
 31 37  1  0  0  0  0
 31 43  1  0  0  0  0
 32 53  1  0  0  0  0
 32 42  2  0  0  0  0
 35 45  1  0  0  0  0
 44 57  1  0  0  0  0
 46 54  1  0  0  0  0
 47 55  1  0  0  0  0
 48 56  1  0  0  0  0
 50 59  2  0  0  0  0
 51 60  2  0  0  0  0
 52 58  1  0  0  0  0
 59 60  1  0  0  0  0
M  END
$$$$
855563
  MOE2005           2D

 35 38  0  0  1  0  0  0  0  0999 V2000
   -1.1710    0.4130    0.0000 C   0  0  2  0  0  0  0  0  0  0  0  0
   -2.8130    0.4420    0.0000 C   0  0  3  0  0  0  0  0  0  0  0  0
   -0.7830   -1.1290    0.0000 C   0  0  0  0  0  0  0  0  0  0  0  0
   -0.4420    1.7500    0.0000 C   0  0  3  0  0  0  0  0  0  0  0  0
   -2.6710    3.1210    0.0000 C   0  0  0  0  0  0  0  0  0  0  0  0
   -3.4920    1.8500    0.0000 C   0  0  3  0  0  0  0  0  0  0  0  0
   -2.0420   -1.9670    0.0000 N   0  0  0  0  0  0  0  0  0  0  0  0
   -3.1830   -1.0290    0.0000 C   0  0  3  0  0  0  0  0  0  0  0  0
   -1.1830    3.0830    0.0000 C   0  0  3  0  0  0  0  0  0  0  0  0
    0.7580    0.1920    0.0000 O   0  0  0  0  0  0  0  0  0  0  0  0
    1.4500   -0.6580    0.0000 C   0  0  0  0  0  0  0  0  0  0  0  0
    1.2080    1.4710    0.0000 C   0  0  0  0  0  0  0  0  0  0  0  0
    0.3380   -1.5580    0.0000 O   0  0  0  0  0  0  0  0  0  0  0  0
   -4.6040   -1.5000    0.0000 C   0  0  0  0  0  0  0  0  0  0  0  0
   -3.2330    4.1790    0.0000 C   0  0  0  0  0  0  0  0  0  0  0  0
    2.4580    2.4210    0.0000 C   0  0  0  0  0  0  0  0  0  0  0  0
    1.1710   -1.8250    0.0000 O   0  0  0  0  0  0  0  0  0  0  0  0
   -0.5580    4.1040    0.0000 O   0  0  0  0  0  0  0  0  0  0  0  0
    2.6000   -0.1380    0.0000 C   0  0  0  0  0  0  0  0  0  0  0  0
   -4.6920    1.9250    0.0000 C   0  0  0  0  0  0  0  0  0  0  0  0
   -5.7290   -0.5080    0.0000 C   0  0  0  0  0  0  0  0  0  0  0  0
    3.8290   -0.8500    0.0000 C   0  0  0  0  0  0  0  0  0  0  0  0
    5.0080    0.1130    0.0000 C   0  0  3  0  0  0  0  0  0  0  0  0
    4.7960    1.2920    0.0000 O   0  0  0  0  0  0  0  0  0  0  0  0
    3.9170    1.9210    0.0000 C   0  0  0  0  0  0  0  0  0  0  0  0
    7.3580    0.8330    0.0000 C   0  0  0  0  0  0  0  0  0  0  0  0
    5.1170    2.7130    0.0000 C   0  0  3  0  0  0  0  0  0  0  0  0
    6.3580   -0.3500    0.0000 C   0  0  0  0  0  0  0  0  0  0  0  0
    6.7500    2.3830    0.0000 C   0  0  0  0  0  0  0  0  0  0  0  0
   -5.4250    0.9630    0.0000 C   0  0  0  0  0  0  0  0  0  0  0  0
   -7.1500   -0.9790    0.0000 C   0  0  0  0  0  0  0  0  0  0  0  0
    4.8920    3.8920    0.0000 C   0  0  0  0  0  0  0  0  0  0  0  0
   -6.5420    1.9580    0.0000 C   0  0  0  0  0  0  0  0  0  0  0  0
   -8.2710    0.0170    0.0000 C   0  0  0  0  0  0  0  0  0  0  0  0
   -7.9670    1.4880    0.0000 C   0  0  0  0  0  0  0  0  0  0  0  0
  1 10  1  6  0  0  0
  1  3  1  1  0  0  0
  1  4  1  0  0  0  0
  1  2  1  0  0  0  0
  2  6  1  0  0  0  0
  2  8  1  0  0  0  0
  3  7  1  0  0  0  0
  3 13  2  0  0  0  0
  4  9  1  0  0  0  0
  4 12  1  0  0  0  0
  5  9  1  0  0  0  0
  5  6  1  0  0  0  0
  5 15  2  0  0  0  0
  6 20  1  0  0  0  0
  7  8  1  0  0  0  0
  8 14  1  0  0  0  0
  9 18  1  0  0  0  0
 10 11  1  0  0  0  0
 11 19  1  0  0  0  0
 11 17  2  0  0  0  0
 12 16  2  0  0  0  0
 14 21  1  0  0  0  0
 16 25  1  0  0  0  0
 19 22  1  0  0  0  0
 21 30  2  0  0  0  0
 21 31  1  0  0  0  0
 22 23  1  0  0  0  0
 23 28  1  0  0  0  0
 23 24  1  0  0  0  0
 25 27  1  0  0  0  0
 26 28  1  0  0  0  0
 26 29  1  0  0  0  0
 27 29  1  0  0  0  0
 27 32  1  0  0  0  0
 30 33  1  0  0  0  0
 31 34  2  0  0  0  0
 33 35  2  0  0  0  0
 34 35  1  0  0  0  0
M  END
$$$$
4253755
  MOE2005           2D

 35 40  0  0  1  0  0  0  0  0999 V2000
   -3.0750    2.9240    0.0000 C   0  0  0  0  0  0  0  0  0  0  0  0
   -1.8630    2.2230    0.0000 C   0  0  0  0  0  0  0  0  0  0  0  0
   -1.8630    0.8230    0.0000 C   0  0  3  0  0  0  0  0  0  0  0  0
   -3.0750    0.1240    0.0000 C   0  0  0  0  0  0  0  0  0  0  0  0
   -3.0750   -1.2760    0.0000 N   0  0  0  0  0  0  0  0  0  0  0  0
   -4.2870   -1.9770    0.0000 C   0  0  0  0  0  0  0  0  0  0  0  0
   -4.2870   -3.3770    0.0000 C   0  0  0  0  0  0  0  0  0  0  0  0
   -3.0750   -4.0760    0.0000 C   0  0  0  0  0  0  0  0  0  0  0  0
   -3.0750   -5.4770    0.0000 C   0  0  0  0  0  0  0  0  0  0  0  0
   -1.8630   -6.1770    0.0000 C   0  0  0  0  0  0  0  0  0  0  0  0
   -1.8630   -7.5780    0.0000 O   0  0  0  0  0  0  0  0  0  0  0  0
   -3.0750   -8.2770    0.0000 C   0  0  0  0  0  0  0  0  0  0  0  0
   -0.6500   -5.4770    0.0000 C   0  0  0  0  0  0  0  0  0  0  0  0
    0.5620   -6.1770    0.0000 O   0  0  0  0  0  0  0  0  0  0  0  0
    0.5620   -7.5780    0.0000 C   0  0  0  0  0  0  0  0  0  0  0  0
   -0.6500   -4.0760    0.0000 C   0  0  0  0  0  0  0  0  0  0  0  0
   -1.8630   -3.3770    0.0000 C   0  0  0  0  0  0  0  0  0  0  0  0
   -1.8630   -1.9770    0.0000 C   0  0  3  0  0  0  0  0  0  0  0  0
   -0.6500   -1.2760    0.0000 C   0  0  0  0  0  0  0  0  0  0  0  0
   -0.6500    0.1240    0.0000 C   0  0  3  0  0  0  0  0  0  0  0  0
    0.5620    0.8230    0.0000 C   0  0  0  0  0  0  0  0  0  0  0  0
    0.5620    2.2230    0.0000 C   0  0  3  0  0  0  0  0  0  0  0  0
   -0.6500    2.9240    0.0000 N   0  0  0  0  0  0  0  0  0  0  0  0
   -0.6500    4.3240    0.0000 C   0  0  0  0  0  0  0  0  0  0  0  0
    0.5620    5.0230    0.0000 C   0  0  0  0  0  0  0  0  0  0  0  0
    1.7750    4.3240    0.0000 C   0  0  0  0  0  0  0  0  0  0  0  0
    1.7750    2.9240    0.0000 C   0  0  0  0  0  0  0  0  0  0  0  0
    3.1070    2.4910    0.0000 N   0  0  0  0  0  0  0  0  0  0  0  0
    3.9310    3.6230    0.0000 C   0  0  0  0  0  0  0  0  0  0  0  0
    3.1070    4.7570    0.0000 C   0  0  0  0  0  0  0  0  0  0  0  0
    3.6760    6.0350    0.0000 C   0  0  0  0  0  0  0  0  0  0  0  0
    5.0690    6.1830    0.0000 C   0  0  0  0  0  0  0  0  0  0  0  0
    5.6380    7.4600    0.0000 O   0  0  0  0  0  0  0  0  0  0  0  0
    5.8920    5.0490    0.0000 C   0  0  0  0  0  0  0  0  0  0  0  0
    5.3220    3.7710    0.0000 C   0  0  0  0  0  0  0  0  0  0  0  0
  1  2  1  0  0  0  0
  2  3  1  0  0  0  0
  3 20  1  0  0  0  0
  3  4  1  0  0  0  0
  4  5  1  0  0  0  0
  5 18  1  0  0  0  0
  5  6  1  0  0  0  0
  6  7  1  0  0  0  0
  7  8  1  0  0  0  0
  8 17  2  0  0  0  0
  8  9  1  0  0  0  0
  9 10  2  0  0  0  0
 10 13  1  0  0  0  0
 10 11  1  0  0  0  0
 11 12  1  0  0  0  0
 13 16  2  0  0  0  0
 13 14  1  0  0  0  0
 14 15  1  0  0  0  0
 16 17  1  0  0  0  0
 17 18  1  0  0  0  0
 18 19  1  0  0  0  0
 19 20  1  0  0  0  0
 20 21  1  0  0  0  0
 21 22  1  0  0  0  0
 22 27  1  0  0  0  0
 22 23  1  0  0  0  0
 23 24  1  0  0  0  0
 24 25  1  0  0  0  0
 25 26  1  0  0  0  0
 26 27  2  0  0  0  0
 26 30  1  0  0  0  0
 27 28  1  0  0  0  0
 28 29  1  0  0  0  0
 29 30  1  0  0  0  0
 29 35  2  0  0  0  0
 30 31  2  0  0  0  0
 31 32  1  0  0  0  0
 32 34  2  0  0  0  0
 32 33  1  0  0  0  0
 34 35  1  0  0  0  0
M  END
$$$$
4254062
  MOE2005           2D

 56 60  0  0  1  0  0  0  0  0999 V2000
   -4.4450   -9.7170    0.0000 C   0  0  0  0  0  0  0  0  0  0  0  0
   -5.5050   -8.9070    0.0000 O   0  0  0  0  0  0  0  0  0  0  0  0
   -6.0940   -7.6800    0.0000 C   0  0  0  0  0  0  0  0  0  0  0  0
   -5.0610   -6.8060    0.0000 C   0  0  0  0  0  0  0  0  0  0  0  0
   -5.3940   -5.5030    0.0000 C   0  0  0  0  0  0  0  0  0  0  0  0
   -6.2220   -4.4080    0.0000 C   0  0  0  0  0  0  0  0  0  0  0  0
   -5.5570   -3.1760    0.0000 C   0  0  0  0  0  0  0  0  0  0  0  0
   -4.4690   -2.2700    0.0000 C   0  0  3  0  0  0  0  0  0  0  0  0
   -3.2430   -2.9870    0.0000 N   0  0  0  0  0  0  0  0  0  0  0  0
   -3.9390   -4.1170    0.0000 C   0  0  0  0  0  0  0  0  0  0  0  0
   -2.1480   -3.8640    0.0000 C   0  0  0  0  0  0  0  0  0  0  0  0
   -2.5230   -5.1680    0.0000 O   0  0  0  0  0  0  0  0  0  0  0  0
   -0.9510   -4.5440    0.0000 C   0  0  3  0  0  0  0  0  0  0  0  0
   -0.6270   -5.8690    0.0000 C   0  0  0  0  0  0  0  0  0  0  0  0
    0.2380   -3.9330    0.0000 N   0  0  0  0  0  0  0  0  0  0  0  0
    1.5860   -3.7770    0.0000 C   0  0  0  0  0  0  0  0  0  0  0  0
    2.1660   -5.0020    0.0000 O   0  0  0  0  0  0  0  0  0  0  0  0
    2.4040   -2.6700    0.0000 C   0  0  3  0  0  0  0  0  0  0  0  0
    3.7170   -3.0540    0.0000 C   0  0  0  0  0  0  0  0  0  0  0  0
    2.2020   -1.3120    0.0000 N   0  0  0  0  0  0  0  0  0  0  0  0
    2.7480   -0.0590    0.0000 C   0  0  0  0  0  0  0  0  0  0  0  0
    4.0460   -0.4580    0.0000 O   0  0  0  0  0  0  0  0  0  0  0  0
    2.4190    1.2920    0.0000 C   0  0  3  0  0  0  0  0  0  0  0  0
    3.7050    1.9500    0.0000 C   0  0  0  0  0  0  0  0  0  0  0  0
    4.9680    2.7450    0.0000 C   0  0  0  0  0  0  0  0  0  0  0  0
    5.7880    1.5850    0.0000 C   0  0  0  0  0  0  0  0  0  0  0  0
    6.9980    2.3130    0.0000 C   0  0  0  0  0  0  0  0  0  0  0  0
    5.9140    3.1390    0.0000 O   0  0  0  0  0  0  0  0  0  0  0  0
    4.9030    4.3310    0.0000 C   0  0  0  0  0  0  0  0  0  0  0  0
    4.6420    5.7750    0.0000 C   0  0  0  0  0  0  0  0  0  0  0  0
    3.3500    6.5150    0.0000 C   0  0  0  0  0  0  0  0  0  0  0  0
    1.8600    6.2870    0.0000 C   0  0  0  0  0  0  0  0  0  0  0  0
    2.4590    5.1570    0.0000 C   0  0  0  0  0  0  0  0  0  0  0  0
    3.5600    4.4550    0.0000 C   0  0  0  0  0  0  0  0  0  0  0  0
    0.4900    5.6610    0.0000 C   0  0  3  0  0  0  0  0  0  0  0  0
   -0.0740    6.9030    0.0000 O   0  0  0  0  0  0  0  0  0  0  0  0
   -0.3840    4.3760    0.0000 C   0  0  3  0  0  0  0  0  0  0  0  0
   -1.7750    3.9220    0.0000 N   0  0  0  0  0  0  0  0  0  0  0  0
   -2.4150    5.1400    0.0000 C   0  0  0  0  0  0  0  0  0  0  0  0
   -2.8280    2.9130    0.0000 C   0  0  0  0  0  0  0  0  0  0  0  0
   -3.8940    3.7530    0.0000 O   0  0  0  0  0  0  0  0  0  0  0  0
   -3.6090    1.6870    0.0000 C   0  0  3  0  0  0  0  0  0  0  0  0
   -4.9220    2.0410    0.0000 C   0  0  0  0  0  0  0  0  0  0  0  0
   -4.0640    0.3410    0.0000 N   0  0  0  0  0  0  0  0  0  0  0  0
   -4.7600   -0.8840    0.0000 C   0  0  0  0  0  0  0  0  0  0  0  0
   -6.1260   -0.7060    0.0000 O   0  0  0  0  0  0  0  0  0  0  0  0
    0.1470    3.0000    0.0000 C   0  0  0  0  0  0  0  0  0  0  0  0
    1.0660    3.9180    0.0000 O   0  0  0  0  0  0  0  0  0  0  0  0
    1.1250    1.9380    0.0000 N   0  0  0  0  0  0  0  0  0  0  0  0
    2.1000    2.7960    0.0000 C   0  0  0  0  0  0  0  0  0  0  0  0
    8.0090    3.2760    0.0000 C   0  0  0  0  0  0  0  0  0  0  0  0
    9.3560    3.2920    0.0000 O   0  0  0  0  0  0  0  0  0  0  0  0
    7.3580    4.4800    0.0000 C   0  0  0  0  0  0  0  0  0  0  0  0
    6.0330    4.0180    0.0000 C   0  0  0  0  0  0  0  0  0  0  0  0
   -7.2040   -5.3780    0.0000 C   0  0  0  0  0  0  0  0  0  0  0  0
   -7.1230   -6.7530    0.0000 C   0  0  0  0  0  0  0  0  0  0  0  0
  1  2  1  0  0  0  0
  2  3  1  0  0  0  0
  3  4  1  0  0  0  0
  3 56  2  0  0  0  0
  4  5  2  0  0  0  0
  5  6  1  0  0  0  0
  6  7  1  0  0  0  0
  6 55  2  0  0  0  0
  7  8  1  0  0  0  0
  8 45  1  0  0  0  0
  8  9  1  0  0  0  0
  9 10  1  0  0  0  0
  9 11  1  0  0  0  0
 11 13  1  0  0  0  0
 11 12  2  0  0  0  0
 13 15  1  0  0  0  0
 13 14  1  0  0  0  0
 15 16  1  0  0  0  0
 16 18  1  0  0  0  0
 16 17  2  0  0  0  0
 18 20  1  0  0  0  0
 18 19  1  0  0  0  0
 20 21  1  0  0  0  0
 21 23  1  0  0  0  0
 21 22  2  0  0  0  0
 23 49  1  0  0  0  0
 23 24  1  0  0  0  0
 24 25  1  0  0  0  0
 25 54  2  0  0  0  0
 25 26  1  0  0  0  0
 26 27  2  0  0  0  0
 27 51  1  0  0  0  0
 27 28  1  0  0  0  0
 28 29  1  0  0  0  0
 29 30  1  0  0  0  0
 29 34  2  0  0  0  0
 30 31  2  0  0  0  0
 31 32  1  0  0  0  0
 32 33  2  0  0  0  0
 32 35  1  0  0  0  0
 33 34  1  0  0  0  0
 35 37  1  0  0  0  0
 35 36  1  0  0  0  0
 37 38  1  0  0  0  0
 37 47  1  0  0  0  0
 38 40  1  0  0  0  0
 38 39  1  0  0  0  0
 40 42  1  0  0  0  0
 40 41  2  0  0  0  0
 42 44  1  0  0  0  0
 42 43  1  0  0  0  0
 44 45  1  0  0  0  0
 45 46  2  0  0  0  0
 47 49  1  0  0  0  0
 47 48  2  0  0  0  0
 49 50  1  0  0  0  0
 51 53  2  0  0  0  0
 51 52  1  0  0  0  0
 53 54  1  0  0  0  0
 55 56  1  0  0  0  0
M  END
$$$$
4237598
  MOE2005           2D

 27 30  0  0  0  0  0  0  0  0999 V2000
    0.4940   -6.0410    0.0000 C   0  0  0  0  0  0  0  0  0  0  0  0
    1.7070   -5.3400    0.0000 C   0  0  0  0  0  0  0  0  0  0  0  0
    2.9190   -6.0410    0.0000 O   0  0  0  0  0  0  0  0  0  0  0  0
    1.7070   -3.9400    0.0000 N   0  0  0  0  0  0  0  0  0  0  0  0
    2.9190   -3.2410    0.0000 C   0  0  0  0  0  0  0  0  0  0  0  0
    2.9190   -1.8410    0.0000 C   0  0  0  0  0  0  0  0  0  0  0  0
    1.7070   -1.1400    0.0000 C   0  0  0  0  0  0  0  0  0  0  0  0
    2.9190   -0.4410    0.0000 C   0  0  0  0  0  0  0  0  0  0  0  0
    2.9190    0.9590    0.0000 C   0  0  0  0  0  0  0  0  0  0  0  0
    1.7070    1.6600    0.0000 C   0  0  0  0  0  0  0  0  0  0  0  0
    0.4940    0.9590    0.0000 N   0  0  0  0  0  0  0  0  0  0  0  0
    0.4940   -0.4410    0.0000 C   0  0  0  0  0  0  0  0  0  0  0  0
   -0.7180    1.6600    0.0000 C   0  0  0  0  0  0  0  0  0  0  0  0
   -1.9310    0.9590    0.0000 C   0  0  0  0  0  0  0  0  0  0  0  0
   -3.1430    1.6600    0.0000 C   0  0  0  0  0  0  0  0  0  0  0  0
   -4.3560    0.9590    0.0000 C   0  0  0  0  0  0  0  0  0  0  0  0
   -4.3560   -0.4410    0.0000 C   0  0  0  0  0  0  0  0  0  0  0  0
   -3.1430   -1.1400    0.0000 C   0  0  0  0  0  0  0  0  0  0  0  0
   -1.9310   -0.4410    0.0000 C   0  0  0  0  0  0  0  0  0  0  0  0
   -0.7180    3.0600    0.0000 C   0  0  0  0  0  0  0  0  0  0  0  0
    0.4940    3.7590    0.0000 C   0  0  0  0  0  0  0  0  0  0  0  0
    0.4940    5.1590    0.0000 C   0  0  0  0  0  0  0  0  0  0  0  0
   -0.7180    5.8590    0.0000 C   0  0  0  0  0  0  0  0  0  0  0  0
   -1.9310    5.1590    0.0000 C   0  0  0  0  0  0  0  0  0  0  0  0
   -1.9310    3.7590    0.0000 C   0  0  0  0  0  0  0  0  0  0  0  0
    0.4940   -1.8410    0.0000 C   0  0  0  0  0  0  0  0  0  0  0  0
    0.4940   -3.2410    0.0000 C   0  0  0  0  0  0  0  0  0  0  0  0
  1  2  1  0  0  0  0
  2  4  1  0  0  0  0
  2  3  2  0  0  0  0
  4  5  1  0  0  0  0
  4 27  1  0  0  0  0
  5  6  1  0  0  0  0
  6  7  1  0  0  0  0
  7 26  1  0  0  0  0
  7  8  1  0  0  0  0
  7 12  1  0  0  0  0
  8  9  1  0  0  0  0
  9 10  1  0  0  0  0
 10 11  1  0  0  0  0
 11 13  1  0  0  0  0
 11 12  1  0  0  0  0
 13 14  1  0  0  0  0
 13 20  1  0  0  0  0
 14 15  1  0  0  0  0
 14 19  2  0  0  0  0
 15 16  2  0  0  0  0
 16 17  1  0  0  0  0
 17 18  2  0  0  0  0
 18 19  1  0  0  0  0
 20 21  1  0  0  0  0
 20 25  2  0  0  0  0
 21 22  2  0  0  0  0
 22 23  1  0  0  0  0
 23 24  2  0  0  0  0
 24 25  1  0  0  0  0
 26 27  1  0  0  0  0
M  END
$$$$
855836
  MOE2005           2D

 35 39  0  0  1  0  0  0  0  0999 V2000
   -0.8210   -1.5460    0.0000 N   0  0  0  0  0  0  0  0  0  0  0  0
   -0.8210    0.0000    0.0000 C   0  0  3  0  0  0  0  0  0  0  0  0
    0.4540    0.6960    0.0000 C   0  0  0  0  0  0  0  0  0  0  0  0
   -5.9330    3.0790    0.0000 C   0  0  0  0  0  0  0  0  0  0  0  0
    1.7500    0.0000    0.0000 C   0  0  0  0  0  0  0  0  0  0  0  0
   -2.1330    0.6960    0.0000 C   0  0  0  0  0  0  0  0  0  0  0  0
    0.4540    2.1920    0.0000 C   0  0  0  0  0  0  0  0  0  0  0  0
   -4.6580    2.2960    0.0000 C   0  0  3  0  0  0  0  0  0  0  0  0
   -7.2460    2.3670    0.0000 C   0  0  0  0  0  0  0  0  0  0  0  0
   -3.4290    0.0000    0.0000 C   0  0  3  0  0  0  0  0  0  0  0  0
   -5.8880    4.5710    0.0000 C   0  0  0  0  0  0  0  0  0  0  0  0
   -2.1330   -2.2960    0.0000 C   0  0  0  0  0  0  0  0  0  0  0  0
    1.7500    2.9540    0.0000 C   0  0  0  0  0  0  0  0  0  0  0  0
   -8.5210    3.1540    0.0000 C   0  0  0  0  0  0  0  0  0  0  0  0
   -4.7040    0.7920    0.0000 C   0  0  0  0  0  0  0  0  0  0  0  0
    3.0630    0.6960    0.0000 C   0  0  0  0  0  0  0  0  0  0  0  0
   -7.1580    5.3580    0.0000 C   0  0  0  0  0  0  0  0  0  0  0  0
   -8.4750    4.6460    0.0000 C   0  0  0  0  0  0  0  0  0  0  0  0
    3.0630    2.1920    0.0000 C   0  0  0  0  0  0  0  0  0  0  0  0
   -3.3210    3.0040    0.0000 N   0  0  0  0  0  0  0  0  0  0  0  0
   -3.4290   -1.5460    0.0000 C   0  0  3  0  0  0  0  0  0  0  0  0
    0.4540   -2.2960    0.0000 C   0  0  0  0  0  0  0  0  0  0  0  0
    1.7500   -1.5460    0.0000 C   0  0  0  0  0  0  0  0  0  0  0  0
   -3.2790    4.4960    0.0000 C   0  0  0  0  0  0  0  0  0  0  0  0
   -9.8380    2.4380    0.0000 O   0  0  0  0  0  0  0  0  0  0  0  0
    1.7380    4.4500    0.0000 O   0  0  0  0  0  0  0  0  0  0  0  0
   -9.7540    5.4380    0.0000 O   0  0  0  0  0  0  0  0  0  0  0  0
    4.3670    2.9290    0.0000 O   0  0  0  0  0  0  0  0  0  0  0  0
   -4.5710    5.2830    0.0000 C   0  0  0  0  0  0  0  0  0  0  0  0
   -4.7210   -2.3130    0.0000 C   0  0  0  0  0  0  0  0  0  0  0  0
   -9.7170    6.6380    0.0000 C   0  0  0  0  0  0  0  0  0  0  0  0
    5.4000    2.3210    0.0000 C   0  0  0  0  0  0  0  0  0  0  0  0
    0.6920    5.0460    0.0000 C   0  0  0  0  0  0  0  0  0  0  0  0
   -9.8710    1.2380    0.0000 C   0  0  0  0  0  0  0  0  0  0  0  0
   -4.7080   -3.5130    0.0000 C   0  0  0  0  0  0  0  0  0  0  0  0
  1  2  1  0  0  0  0
  1 12  1  0  0  0  0
  1 22  1  0  0  0  0
  2  6  1  0  0  0  0
  2  3  1  0  0  0  0
  3  7  1  0  0  0  0
  3  5  2  0  0  0  0
  4  8  1  0  0  0  0
  4 11  1  0  0  0  0
  4  9  2  0  0  0  0
  5 23  1  0  0  0  0
  5 16  1  0  0  0  0
  6 10  1  0  0  0  0
  7 13  2  0  0  0  0
  8 15  1  0  0  0  0
  8 20  1  0  0  0  0
  9 14  1  0  0  0  0
 10 15  1  0  0  0  0
 10 21  1  0  0  0  0
 11 29  1  0  0  0  0
 11 17  2  0  0  0  0
 12 21  1  0  0  0  0
 13 19  1  0  0  0  0
 13 26  1  0  0  0  0
 14 18  2  0  0  0  0
 14 25  1  0  0  0  0
 16 19  2  0  0  0  0
 17 18  1  0  0  0  0
 18 27  1  0  0  0  0
 19 28  1  0  0  0  0
 20 24  1  0  0  0  0
 21 30  1  0  0  0  0
 22 23  1  0  0  0  0
 24 29  1  0  0  0  0
 25 34  1  0  0  0  0
 26 33  1  0  0  0  0
 27 31  1  0  0  0  0
 28 32  1  0  0  0  0
 30 35  1  0  0  0  0
M  END
$$$$
4237785
  MOE2005           2D

 30 33  0  0  0  0  0  0  0  0999 V2000
    6.9110    2.6830    0.0000 C   0  0  0  0  0  0  0  0  0  0  0  0
    5.6980    1.9840    0.0000 C   0  0  0  0  0  0  0  0  0  0  0  0
    5.6980    0.5840    0.0000 N   0  0  0  0  0  0  0  0  0  0  0  0
    4.4870   -0.1170    0.0000 C   0  0  0  0  0  0  0  0  0  0  0  0
    3.2730    0.5840    0.0000 N   0  0  0  0  0  0  0  0  0  0  0  0
    2.0620   -0.1170    0.0000 C   0  0  0  0  0  0  0  0  0  0  0  0
    2.0620   -1.5170    0.0000 C   0  0  0  0  0  0  0  0  0  0  0  0
    3.2730   -2.2160    0.0000 C   0  0  0  0  0  0  0  0  0  0  0  0
    4.4870   -1.5170    0.0000 N   0  0  0  0  0  0  0  0  0  0  0  0
    0.8480   -2.2160    0.0000 N   0  0  0  0  0  0  0  0  0  0  0  0
   -0.3630   -1.5170    0.0000 C   0  0  0  0  0  0  0  0  0  0  0  0
   -0.3630   -0.1170    0.0000 C   0  0  0  0  0  0  0  0  0  0  0  0
   -1.5770    0.5840    0.0000 O   0  0  0  0  0  0  0  0  0  0  0  0
    0.8480    0.5840    0.0000 N   0  0  0  0  0  0  0  0  0  0  0  0
    0.8480    1.9840    0.0000 C   0  0  0  0  0  0  0  0  0  0  0  0
   -0.3630    2.6830    0.0000 C   0  0  0  0  0  0  0  0  0  0  0  0
   -0.3630    4.0830    0.0000 C   0  0  0  0  0  0  0  0  0  0  0  0
   -1.5770    4.7840    0.0000 C   0  0  0  0  0  0  0  0  0  0  0  0
   -2.7880    4.0830    0.0000 C   0  0  0  0  0  0  0  0  0  0  0  0
   -4.0010    4.7840    0.0000 F   0  0  0  0  0  0  0  0  0  0  0  0
   -2.7880    2.6830    0.0000 C   0  0  0  0  0  0  0  0  0  0  0  0
   -1.5770    1.9840    0.0000 C   0  0  0  0  0  0  0  0  0  0  0  0
   -1.5770   -2.2160    0.0000 C   0  0  0  0  0  0  0  0  0  0  0  0
   -2.7880   -1.5170    0.0000 C   0  0  0  0  0  0  0  0  0  0  0  0
   -4.0010   -2.2160    0.0000 C   0  0  0  0  0  0  0  0  0  0  0  0
   -5.2130   -1.5170    0.0000 F   0  0  0  0  0  0  0  0  0  0  0  0
   -4.0010   -3.6160    0.0000 C   0  0  0  0  0  0  0  0  0  0  0  0
   -2.7880   -4.3170    0.0000 C   0  0  0  0  0  0  0  0  0  0  0  0
   -2.7880   -5.7170    0.0000 F   0  0  0  0  0  0  0  0  0  0  0  0
   -1.5770   -3.6160    0.0000 C   0  0  0  0  0  0  0  0  0  0  0  0
  1  2  1  0  0  0  0
  2  3  1  0  0  0  0
  3  4  1  0  0  0  0
  4  5  1  0  0  0  0
  4  9  2  0  0  0  0
  5  6  2  0  0  0  0
  6  7  1  0  0  0  0
  6 14  1  0  0  0  0
  7  8  2  0  0  0  0
  7 10  1  0  0  0  0
  8  9  1  0  0  0  0
 10 11  2  0  0  0  0
 11 12  1  0  0  0  0
 11 23  1  0  0  0  0
 12 13  2  0  0  0  0
 12 14  1  0  0  0  0
 14 15  1  0  0  0  0
 15 16  1  0  0  0  0
 16 17  1  0  0  0  0
 16 22  2  0  0  0  0
 17 18  2  0  0  0  0
 18 19  1  0  0  0  0
 19 20  1  0  0  0  0
 19 21  2  0  0  0  0
 21 22  1  0  0  0  0
 23 24  1  0  0  0  0
 23 30  2  0  0  0  0
 24 25  2  0  0  0  0
 25 26  1  0  0  0  0
 25 27  1  0  0  0  0
 27 28  2  0  0  0  0
 28 29  1  0  0  0  0
 28 30  1  0  0  0  0
M  END
$$$$
4254078
  MOE2005           2D

 50 57  0  0  0  0  0  0  0  0999 V2000
    6.6610    2.2550    0.0000 C   0  0  0  0  0  0  0  0  0  0  0  0
    5.5530    3.0350    0.0000 C   0  0  0  0  0  0  0  0  0  0  0  0
    4.3240    2.4440    0.0000 C   0  0  0  0  0  0  0  0  0  0  0  0
    4.1880    1.0800    0.0000 C   0  0  0  0  0  0  0  0  0  0  0  0
    5.2940    0.3450    0.0000 C   0  0  0  0  0  0  0  0  0  0  0  0
    6.5320    0.8950    0.0000 C   0  0  0  0  0  0  0  0  0  0  0  0
    3.2770   -0.0450    0.0000 P   0  3  0  0  0  0  0  0  0  0  0  0
    2.6240    1.3050    0.0000 Au  0  0  0  0  0  0  0  0  0  0  0  0
    2.2980    2.7050    0.0000 N   0  3  0  0  0  0  0  0  0  0  0  0
    3.2740    3.6820    0.0000 N   0  0  0  0  0  0  0  0  0  0  0  0
    2.6740    4.8940    0.0000 N   0  0  0  0  0  0  0  0  0  0  0  0
    1.3250    4.6940    0.0000 N   0  0  0  0  0  0  0  0  0  0  0  0
    1.0750    3.3460    0.0000 C   0  0  0  0  0  0  0  0  0  0  0  0
   -0.3250    3.0890    0.0000 C   0  0  0  0  0  0  0  0  0  0  0  0
   -0.7750    4.3760    0.0000 N   0  0  0  0  0  0  0  0  0  0  0  0
   -2.1250    4.3700    0.0000 N   0  0  0  0  0  0  0  0  0  0  0  0
   -2.5200    3.0860    0.0000 N   0  0  0  0  0  0  0  0  0  0  0  0
   -1.4570    2.2090    0.0000 N   0  3  0  0  0  0  0  0  0  0  0  0
   -2.0490    0.7070    0.0000 Au  0  0  0  0  0  0  0  0  0  0  0  0
   -2.9410   -0.6490    0.0000 P   0  3  0  0  0  0  0  0  0  0  0  0
   -2.3750   -2.3060    0.0000 C   0  0  0  0  0  0  0  0  0  0  0  0
   -3.3080   -3.3180    0.0000 C   0  0  0  0  0  0  0  0  0  0  0  0
   -3.0740   -4.6660    0.0000 C   0  0  0  0  0  0  0  0  0  0  0  0
   -1.8050   -5.0770    0.0000 C   0  0  0  0  0  0  0  0  0  0  0  0
   -0.7830   -4.2020    0.0000 C   0  0  0  0  0  0  0  0  0  0  0  0
   -1.0910   -2.8580    0.0000 C   0  0  0  0  0  0  0  0  0  0  0  0
   -3.9460    0.6100    0.0000 C   0  0  0  0  0  0  0  0  0  0  0  0
   -3.4450    1.8760    0.0000 C   0  0  0  0  0  0  0  0  0  0  0  0
   -4.2250    3.0050    0.0000 C   0  0  0  0  0  0  0  0  0  0  0  0
   -5.5550    2.8810    0.0000 C   0  0  0  0  0  0  0  0  0  0  0  0
   -6.1240    1.6580    0.0000 C   0  0  0  0  0  0  0  0  0  0  0  0
   -5.3210    0.5510    0.0000 C   0  0  0  0  0  0  0  0  0  0  0  0
   -4.2910   -1.3630    0.0000 C   0  0  0  0  0  0  0  0  0  0  0  0
   -5.5570   -0.8160    0.0000 C   0  0  0  0  0  0  0  0  0  0  0  0
   -6.7010   -1.5610    0.0000 C   0  0  0  0  0  0  0  0  0  0  0  0
   -6.5770   -2.9160    0.0000 C   0  0  0  0  0  0  0  0  0  0  0  0
   -5.3550   -3.5090    0.0000 C   0  0  0  0  0  0  0  0  0  0  0  0
   -4.2770   -2.7050    0.0000 C   0  0  0  0  0  0  0  0  0  0  0  0
    1.7880   -0.3100    0.0000 C   0  0  0  0  0  0  0  0  0  0  0  0
    0.3890   -0.1910    0.0000 C   0  0  0  0  0  0  0  0  0  0  0  0
   -0.3840   -1.2970    0.0000 C   0  0  0  0  0  0  0  0  0  0  0  0
    0.2210   -2.5250    0.0000 C   0  0  0  0  0  0  0  0  0  0  0  0
    1.5430   -2.6600    0.0000 C   0  0  0  0  0  0  0  0  0  0  0  0
    2.3130   -1.5540    0.0000 C   0  0  0  0  0  0  0  0  0  0  0  0
    4.3330   -1.2770    0.0000 C   0  0  0  0  0  0  0  0  0  0  0  0
    3.8320   -2.5550    0.0000 C   0  0  0  0  0  0  0  0  0  0  0  0
    4.6190   -3.6680    0.0000 C   0  0  0  0  0  0  0  0  0  0  0  0
    5.9640   -3.5410    0.0000 C   0  0  0  0  0  0  0  0  0  0  0  0
    6.5360   -2.3180    0.0000 C   0  0  0  0  0  0  0  0  0  0  0  0
    5.7490   -1.2100    0.0000 C   0  0  0  0  0  0  0  0  0  0  0  0
  1  6  2  0  0  0  0
  1  2  1  0  0  0  0
  2  3  2  0  0  0  0
  3  4  1  0  0  0  0
  4  5  2  0  0  0  0
  4  7  1  0  0  0  0
  5  6  1  0  0  0  0
  7 39  1  0  0  0  0
  7  8  1  0  0  0  0
  7 45  1  0  0  0  0
  8  9  1  0  0  0  0
  9 10  1  0  0  0  0
  9 13  1  0  0  0  0
 10 11  2  0  0  0  0
 11 12  1  0  0  0  0
 12 13  2  0  0  0  0
 13 14  1  0  0  0  0
 14 15  2  0  0  0  0
 14 18  1  0  0  0  0
 15 16  1  0  0  0  0
 16 17  2  0  0  0  0
 17 18  1  0  0  0  0
 18 19  1  0  0  0  0
 19 20  1  0  0  0  0
 20 27  1  0  0  0  0
 20 21  1  0  0  0  0
 20 33  1  0  0  0  0
 21 22  1  0  0  0  0
 21 26  2  0  0  0  0
 22 23  2  0  0  0  0
 23 24  1  0  0  0  0
 24 25  2  0  0  0  0
 25 26  1  0  0  0  0
 27 28  1  0  0  0  0
 27 32  2  0  0  0  0
 28 29  2  0  0  0  0
 29 30  1  0  0  0  0
 30 31  2  0  0  0  0
 31 32  1  0  0  0  0
 33 34  1  0  0  0  0
 33 38  2  0  0  0  0
 34 35  2  0  0  0  0
 35 36  1  0  0  0  0
 36 37  2  0  0  0  0
 37 38  1  0  0  0  0
 39 40  1  0  0  0  0
 39 44  2  0  0  0  0
 40 41  2  0  0  0  0
 41 42  1  0  0  0  0
 42 43  2  0  0  0  0
 43 44  1  0  0  0  0
 45 46  1  0  0  0  0
 45 50  2  0  0  0  0
 46 47  2  0  0  0  0
 47 48  1  0  0  0  0
 48 49  2  0  0  0  0
 49 50  1  0  0  0  0
M  CHG  1   7   1
M  CHG  1   8  -8
M  CHG  1   9   1
M  CHG  1  18   1
M  CHG  1  19  -8
M  CHG  1  20   1
M  END
$$$$
4239325
  MOE2005           2D

 33 37  0  0  0  0  0  0  0  0999 V2000
    4.7020   -4.7090    0.0000 F   0  0  0  0  0  0  0  0  0  0  0  0
    3.4910   -4.0100    0.0000 C   0  0  0  0  0  0  0  0  0  0  0  0
    3.4910   -2.6100    0.0000 C   0  0  0  0  0  0  0  0  0  0  0  0
    2.2770   -1.9090    0.0000 C   0  0  0  0  0  0  0  0  0  0  0  0
    1.0660   -2.6100    0.0000 C   0  0  0  0  0  0  0  0  0  0  0  0
   -0.1480   -1.9090    0.0000 C   0  0  0  0  0  0  0  0  0  0  0  0
   -0.1480   -0.5090    0.0000 N   0  0  0  0  0  0  0  0  0  0  0  0
    1.0660    0.1920    0.0000 C   0  0  0  0  0  0  0  0  0  0  0  0
    2.2770   -0.5090    0.0000 O   0  0  0  0  0  0  0  0  0  0  0  0
    1.0660    1.5920    0.0000 C   0  0  0  0  0  0  0  0  0  0  0  0
   -0.1480    2.2910    0.0000 N   0  0  0  0  0  0  0  0  0  0  0  0
   -1.3590    1.5920    0.0000 C   0  0  0  0  0  0  0  0  0  0  0  0
   -1.3590    0.1920    0.0000 C   0  0  0  0  0  0  0  0  0  0  0  0
   -2.5730   -0.5090    0.0000 N   0  0  0  0  0  0  0  0  0  0  0  0
   -3.7840    0.1920    0.0000 C   0  0  0  0  0  0  0  0  0  0  0  0
   -3.7840    1.5920    0.0000 N   0  0  0  0  0  0  0  0  0  0  0  0
   -2.5730    2.2910    0.0000 C   0  0  0  0  0  0  0  0  0  0  0  0
   -4.9980   -0.5090    0.0000 N   0  0  0  0  0  0  0  0  0  0  0  0
   -6.2090    0.1920    0.0000 C   0  0  0  0  0  0  0  0  0  0  0  0
   -7.4210   -0.5090    0.0000 C   0  0  0  0  0  0  0  0  0  0  0  0
   -7.4210   -1.9090    0.0000 N   0  0  0  0  0  0  0  0  0  0  0  0
   -6.2090   -2.6100    0.0000 C   0  0  0  0  0  0  0  0  0  0  0  0
   -4.9980   -1.9090    0.0000 C   0  0  0  0  0  0  0  0  0  0  0  0
    2.2770    2.2910    0.0000 C   0  0  0  0  0  0  0  0  0  0  0  0
    3.4910    1.5920    0.0000 C   0  0  0  0  0  0  0  0  0  0  0  0
    4.7020    2.2910    0.0000 C   0  0  0  0  0  0  0  0  0  0  0  0
    5.9160    1.5920    0.0000 F   0  0  0  0  0  0  0  0  0  0  0  0
    4.7020    3.6910    0.0000 C   0  0  0  0  0  0  0  0  0  0  0  0
    3.4910    4.3920    0.0000 C   0  0  0  0  0  0  0  0  0  0  0  0
    3.4910    5.7920    0.0000 F   0  0  0  0  0  0  0  0  0  0  0  0
    2.2770    3.6910    0.0000 C   0  0  0  0  0  0  0  0  0  0  0  0
    1.0660   -4.0100    0.0000 C   0  0  0  0  0  0  0  0  0  0  0  0
    2.2770   -4.7090    0.0000 C   0  0  0  0  0  0  0  0  0  0  0  0
  1  2  1  0  0  0  0
  2  3  1  0  0  0  0
  2 33  2  0  0  0  0
  3  4  2  0  0  0  0
  4  5  1  0  0  0  0
  5  6  1  0  0  0  0
  5 32  2  0  0  0  0
  6  7  1  0  0  0  0
  7  8  1  0  0  0  0
  7 13  1  0  0  0  0
  8  9  2  0  0  0  0
  8 10  1  0  0  0  0
 10 11  2  0  0  0  0
 10 24  1  0  0  0  0
 11 12  1  0  0  0  0
 12 17  2  0  0  0  0
 12 13  1  0  0  0  0
 13 14  2  0  0  0  0
 14 15  1  0  0  0  0
 15 16  2  0  0  0  0
 15 18  1  0  0  0  0
 16 17  1  0  0  0  0
 18 19  1  0  0  0  0
 18 23  1  0  0  0  0
 19 20  1  0  0  0  0
 20 21  1  0  0  0  0
 21 22  1  0  0  0  0
 22 23  1  0  0  0  0
 24 25  1  0  0  0  0
 24 31  2  0  0  0  0
 25 26  2  0  0  0  0
 26 27  1  0  0  0  0
 26 28  1  0  0  0  0
 28 29  2  0  0  0  0
 29 30  1  0  0  0  0
 29 31  1  0  0  0  0
 32 33  1  0  0  0  0
M  END
$$$$
4238692
  MOE2005           2D

 33 37  0  0  0  0  0  0  0  0999 V2000
    6.6860    6.0240    0.0000 C   0  0  0  0  0  0  0  0  0  0  0  0
    6.6860    4.6240    0.0000 O   0  0  0  0  0  0  0  0  0  0  0  0
    5.4740    3.9250    0.0000 C   0  0  0  0  0  0  0  0  0  0  0  0
    4.2630    4.6240    0.0000 C   0  0  0  0  0  0  0  0  0  0  0  0
    3.0490    3.9250    0.0000 C   0  0  0  0  0  0  0  0  0  0  0  0
    3.0490    2.5250    0.0000 C   0  0  0  0  0  0  0  0  0  0  0  0
    4.2630    1.8240    0.0000 C   0  0  0  0  0  0  0  0  0  0  0  0
    5.4740    2.5250    0.0000 C   0  0  0  0  0  0  0  0  0  0  0  0
    1.8380    1.8240    0.0000 C   0  0  0  0  0  0  0  0  0  0  0  0
    0.6240    2.5250    0.0000 N   0  0  0  0  0  0  0  0  0  0  0  0
   -0.5870    1.8240    0.0000 C   0  0  0  0  0  0  0  0  0  0  0  0
   -0.5870    0.4240    0.0000 C   0  0  0  0  0  0  0  0  0  0  0  0
   -1.8000   -0.2770    0.0000 N   0  0  0  0  0  0  0  0  0  0  0  0
   -3.0120    0.4240    0.0000 C   0  0  0  0  0  0  0  0  0  0  0  0
   -3.0120    1.8240    0.0000 N   0  0  0  0  0  0  0  0  0  0  0  0
   -1.8000    2.5250    0.0000 C   0  0  0  0  0  0  0  0  0  0  0  0
   -4.2250   -0.2770    0.0000 N   0  0  0  0  0  0  0  0  0  0  0  0
   -5.4370    0.4240    0.0000 C   0  0  0  0  0  0  0  0  0  0  0  0
   -6.6500   -0.2770    0.0000 C   0  0  0  0  0  0  0  0  0  0  0  0
   -6.6500   -1.6760    0.0000 O   0  0  0  0  0  0  0  0  0  0  0  0
   -5.4370   -2.3760    0.0000 C   0  0  0  0  0  0  0  0  0  0  0  0
   -4.2250   -1.6760    0.0000 C   0  0  0  0  0  0  0  0  0  0  0  0
    0.6240   -0.2770    0.0000 N   0  0  0  0  0  0  0  0  0  0  0  0
    0.6240   -1.6760    0.0000 C   0  0  0  0  0  0  0  0  0  0  0  0
   -0.5870   -2.3760    0.0000 C   0  0  0  0  0  0  0  0  0  0  0  0
   -0.5870   -3.7750    0.0000 C   0  0  0  0  0  0  0  0  0  0  0  0
   -1.8000   -4.4760    0.0000 C   0  0  0  0  0  0  0  0  0  0  0  0
   -1.8000   -5.8760    0.0000 C   0  0  0  0  0  0  0  0  0  0  0  0
   -0.5870   -6.5750    0.0000 C   0  0  0  0  0  0  0  0  0  0  0  0
    0.6240   -5.8760    0.0000 C   0  0  0  0  0  0  0  0  0  0  0  0
    0.6240   -4.4760    0.0000 C   0  0  0  0  0  0  0  0  0  0  0  0
    1.8380    0.4240    0.0000 C   0  0  0  0  0  0  0  0  0  0  0  0
    3.0490   -0.2770    0.0000 O   0  0  0  0  0  0  0  0  0  0  0  0
  1  2  1  0  0  0  0
  2  3  1  0  0  0  0
  3  4  1  0  0  0  0
  3  8  2  0  0  0  0
  4  5  2  0  0  0  0
  5  6  1  0  0  0  0
  6  7  2  0  0  0  0
  6  9  1  0  0  0  0
  7  8  1  0  0  0  0
  9 10  2  0  0  0  0
  9 32  1  0  0  0  0
 10 11  1  0  0  0  0
 11 12  1  0  0  0  0
 11 16  2  0  0  0  0
 12 13  2  0  0  0  0
 12 23  1  0  0  0  0
 13 14  1  0  0  0  0
 14 15  2  0  0  0  0
 14 17  1  0  0  0  0
 15 16  1  0  0  0  0
 17 18  1  0  0  0  0
 17 22  1  0  0  0  0
 18 19  1  0  0  0  0
 19 20  1  0  0  0  0
 20 21  1  0  0  0  0
 21 22  1  0  0  0  0
 23 24  1  0  0  0  0
 23 32  1  0  0  0  0
 24 25  1  0  0  0  0
 25 26  1  0  0  0  0
 26 27  1  0  0  0  0
 26 31  2  0  0  0  0
 27 28  2  0  0  0  0
 28 29  1  0  0  0  0
 29 30  2  0  0  0  0
 30 31  1  0  0  0  0
 32 33  2  0  0  0  0
M  END
$$$$
4239300
  MOE2005           2D

 30 34  0  0  0  0  0  0  0  0999 V2000
    3.6670   -0.2040    0.0000 O   0  0  0  0  0  0  0  0  0  0  0  0
    2.4560   -0.9050    0.0000 C   0  0  0  0  0  0  0  0  0  0  0  0
    1.2420   -0.2040    0.0000 N   0  0  0  0  0  0  0  0  0  0  0  0
    1.2420    1.1960    0.0000 C   0  0  0  0  0  0  0  0  0  0  0  0
    0.0310    1.8960    0.0000 C   0  0  0  0  0  0  0  0  0  0  0  0
    0.0310    3.2960    0.0000 C   0  0  0  0  0  0  0  0  0  0  0  0
    1.2420    3.9960    0.0000 C   0  0  0  0  0  0  0  0  0  0  0  0
    1.2420    5.3960    0.0000 C   0  0  0  0  0  0  0  0  0  0  0  0
    0.0310    6.0960    0.0000 C   0  0  0  0  0  0  0  0  0  0  0  0
   -1.1830    5.3960    0.0000 C   0  0  0  0  0  0  0  0  0  0  0  0
   -1.1830    3.9960    0.0000 C   0  0  0  0  0  0  0  0  0  0  0  0
    0.0310   -0.9050    0.0000 C   0  0  0  0  0  0  0  0  0  0  0  0
    0.0310   -2.3050    0.0000 C   0  0  0  0  0  0  0  0  0  0  0  0
   -1.1830   -3.0040    0.0000 C   0  0  0  0  0  0  0  0  0  0  0  0
   -2.3940   -2.3050    0.0000 N   0  0  0  0  0  0  0  0  0  0  0  0
   -2.3940   -0.9050    0.0000 C   0  0  0  0  0  0  0  0  0  0  0  0
   -1.1830   -0.2040    0.0000 N   0  0  0  0  0  0  0  0  0  0  0  0
   -3.6080   -0.2040    0.0000 N   0  0  0  0  0  0  0  0  0  0  0  0
   -3.6080    1.1960    0.0000 C   0  0  0  0  0  0  0  0  0  0  0  0
   -4.8190    1.8960    0.0000 C   0  0  0  0  0  0  0  0  0  0  0  0
   -6.0330    1.1960    0.0000 N   0  0  0  0  0  0  0  0  0  0  0  0
   -6.0330   -0.2040    0.0000 C   0  0  0  0  0  0  0  0  0  0  0  0
   -4.8190   -0.9050    0.0000 C   0  0  0  0  0  0  0  0  0  0  0  0
    1.2420   -3.0040    0.0000 N   0  0  0  0  0  0  0  0  0  0  0  0
    2.4560   -2.3050    0.0000 C   0  0  0  0  0  0  0  0  0  0  0  0
    3.6670   -3.0040    0.0000 C   0  0  0  0  0  0  0  0  0  0  0  0
    3.8130   -4.3970    0.0000 C   0  0  0  0  0  0  0  0  0  0  0  0
    5.1830   -4.6870    0.0000 C   0  0  0  0  0  0  0  0  0  0  0  0
    5.8830   -3.4750    0.0000 C   0  0  0  0  0  0  0  0  0  0  0  0
    4.9470   -2.4350    0.0000 S   0  0  0  0  0  0  0  0  0  0  0  0
  1  2  2  0  0  0  0
  2  3  1  0  0  0  0
  2 25  1  0  0  0  0
  3  4  1  0  0  0  0
  3 12  1  0  0  0  0
  4  5  1  0  0  0  0
  5  6  1  0  0  0  0
  6  7  1  0  0  0  0
  6 11  2  0  0  0  0
  7  8  2  0  0  0  0
  8  9  1  0  0  0  0
  9 10  2  0  0  0  0
 10 11  1  0  0  0  0
 12 13  1  0  0  0  0
 12 17  2  0  0  0  0
 13 14  2  0  0  0  0
 13 24  1  0  0  0  0
 14 15  1  0  0  0  0
 15 16  2  0  0  0  0
 16 18  1  0  0  0  0
 16 17  1  0  0  0  0
 18 19  1  0  0  0  0
 18 23  1  0  0  0  0
 19 20  1  0  0  0  0
 20 21  1  0  0  0  0
 21 22  1  0  0  0  0
 22 23  1  0  0  0  0
 24 25  2  0  0  0  0
 25 26  1  0  0  0  0
 26 27  2  0  0  0  0
 26 30  1  0  0  0  0
 27 28  1  0  0  0  0
 28 29  2  0  0  0  0
 29 30  1  0  0  0  0
M  END
$$$$
855721
  MOE2005           2D

 43 49  0  0  1  0  0  0  0  0999 V2000
   -8.5380   -1.0380    0.0000 N   0  0  0  0  0  0  0  0  0  0  0  0
   -9.2880   -2.2420    0.0000 C   0  0  2  0  0  0  0  0  0  0  0  0
   -7.0880   -2.8670    0.0000 C   0  0  2  0  0  0  0  0  0  0  0  0
   -7.1040   -1.4290    0.0000 C   0  0  0  0  0  0  0  0  0  0  0  0
   -8.4250   -3.4380    0.0000 O   0  0  0  0  0  0  0  0  0  0  0  0
   -1.6460   -0.2210    0.0000 C   0  0  0  0  0  0  0  0  0  0  0  0
    0.9630    1.0290    0.0000 C   0  0  0  0  0  0  0  0  0  0  0  0
   -9.1000    0.3130    0.0000 C   0  0  3  0  0  0  0  0  0  0  0  0
  -10.7080    0.4500    0.0000 C   0  0  0  0  0  0  0  0  0  0  0  0
  -11.5290   -0.7960    0.0000 N   0  0  0  0  0  0  0  0  0  0  0  0
    2.1540    1.9040    0.0000 C   0  0  0  0  0  0  0  0  0  0  0  0
   -5.7540   -2.1830    0.0000 N   0  0  0  0  0  0  0  0  0  0  0  0
   -0.1460    1.8580    0.0000 C   0  0  0  0  0  0  0  0  0  0  0  0
  -10.8540   -2.1290    0.0000 C   0  0  3  0  0  0  0  0  0  0  0  0
   -1.5670    1.3040    0.0000 C   0  0  0  0  0  0  0  0  0  0  0  0
   -0.5210   -1.0290    0.0000 C   0  0  3  0  0  0  0  0  0  0  0  0
   -3.0750   -0.7920    0.0000 C   0  0  0  0  0  0  0  0  0  0  0  0
    1.6920    3.3080    0.0000 N   0  0  0  0  0  0  0  0  0  0  0  0
   -3.1540   -2.3130    0.0000 C   0  0  3  0  0  0  0  0  0  0  0  0
   -0.6790   -2.5210    0.0000 N   0  0  0  0  0  0  0  0  0  0  0  0
   -4.4920   -2.9960    0.0000 C   0  0  0  0  0  0  0  0  0  0  0  0
    0.2290    3.2960    0.0000 C   0  0  0  0  0  0  0  0  0  0  0  0
    0.8290   -0.4250    0.0000 C   0  0  0  0  0  0  0  0  0  0  0  0
   -2.0330   -3.1210    0.0000 C   0  0  0  0  0  0  0  0  0  0  0  0
   -6.3130   -0.8170    0.0000 O   0  0  0  0  0  0  0  0  0  0  0  0
  -11.2290    1.5330    0.0000 O   0  0  0  0  0  0  0  0  0  0  0  0
   -9.8750   -3.2920    0.0000 O   0  0  0  0  0  0  0  0  0  0  0  0
   -8.1880    1.5040    0.0000 C   0  0  0  0  0  0  0  0  0  0  0  0
   -7.1630   -4.3630    0.0000 C   0  0  0  0  0  0  0  0  0  0  0  0
   -4.5540   -4.1960    0.0000 O   0  0  0  0  0  0  0  0  0  0  0  0
    3.3000    1.5380    0.0000 Br  0  0  0  0  0  0  0  0  0  0  0  0
  -13.0290   -1.0170    0.0000 C   0  0  0  0  0  0  0  0  0  0  0  0
   -2.7460    2.2080    0.0000 C   0  0  0  0  0  0  0  0  0  0  0  0
    0.2880   -3.2250    0.0000 C   0  0  0  0  0  0  0  0  0  0  0  0
  -11.9040   -3.1790    0.0000 C   0  0  0  0  0  0  0  0  0  0  0  0
   -0.7460    4.3750    0.0000 C   0  0  0  0  0  0  0  0  0  0  0  0
  -13.2710   -2.4830    0.0000 C   0  0  0  0  0  0  0  0  0  0  0  0
   -2.6130    3.6630    0.0000 C   0  0  0  0  0  0  0  0  0  0  0  0
   -8.7630    2.8880    0.0000 C   0  0  0  0  0  0  0  0  0  0  0  0
   -8.2290   -4.9080    0.0000 C   0  0  0  0  0  0  0  0  0  0  0  0
   -6.1540   -5.0170    0.0000 C   0  0  0  0  0  0  0  0  0  0  0  0
   -9.9540    3.0460    0.0000 C   0  0  0  0  0  0  0  0  0  0  0  0
   -8.0330    3.8420    0.0000 C   0  0  0  0  0  0  0  0  0  0  0  0
  1  2  1  0  0  0  0
  1  4  1  0  0  0  0
  1  8  1  0  0  0  0
  2 27  1  1  0  0  0
  2 14  1  6  0  0  0
  2  5  1  0  0  0  0
  3  5  1  0  0  0  0
  3 12  1  1  0  0  0
  3 29  1  6  0  0  0
  3  4  1  0  0  0  0
  4 25  2  0  0  0  0
  6 16  1  0  0  0  0
  6 15  1  0  0  0  0
  6 17  2  0  0  0  0
  7 23  1  0  0  0  0
  7 13  1  0  0  0  0
  7 11  2  0  0  0  0
  8 28  1  0  0  0  0
  8  9  1  0  0  0  0
  9 10  1  0  0  0  0
  9 26  2  0  0  0  0
 10 14  1  0  0  0  0
 10 32  1  0  0  0  0
 11 31  1  0  0  0  0
 11 18  1  0  0  0  0
 12 21  1  0  0  0  0
 13 15  2  0  0  0  0
 13 22  1  0  0  0  0
 14 35  1  0  0  0  0
 15 33  1  0  0  0  0
 16 20  1  0  0  0  0
 16 23  1  0  0  0  0
 17 19  1  0  0  0  0
 18 22  1  0  0  0  0
 19 21  1  0  0  0  0
 19 24  1  0  0  0  0
 20 24  1  0  0  0  0
 20 34  1  0  0  0  0
 21 30  2  0  0  0  0
 22 36  2  0  0  0  0
 28 39  1  0  0  0  0
 29 40  1  0  0  0  0
 29 41  1  0  0  0  0
 32 37  1  0  0  0  0
 33 38  2  0  0  0  0
 35 37  1  0  0  0  0
 36 38  1  0  0  0  0
 39 42  1  0  0  0  0
 39 43  1  0  0  0  0
M  END
$$$$
862190
  MOE2005           2D

 19 20  0  0  0  0  0  0  0  0999 V2000
    1.7130    1.2040    0.0000 C   0  0  0  0  0  0  0  0  0  0  0  0
    2.5880    0.0210    0.0000 C   0  0  0  0  0  0  0  0  0  0  0  0
    1.7130   -1.2000    0.0000 N   0  0  0  0  0  0  0  0  0  0  0  0
    0.2920    0.7500    0.0000 C   0  0  0  0  0  0  0  0  0  0  0  0
    0.2920   -0.7460    0.0000 C   0  0  0  0  0  0  0  0  0  0  0  0
    2.1790    2.6290    0.0000 N   0  0  0  0  0  0  0  0  0  0  0  0
    2.1830   -2.6250    0.0000 C   0  0  0  0  0  0  0  0  0  0  0  0
    3.7880    0.0290    0.0000 O   0  0  0  0  0  0  0  0  0  0  0  0
    3.3540    2.8750    0.0000 O   0  0  0  0  0  0  0  0  0  0  0  0
    3.6540   -2.9290    0.0000 C   0  0  0  0  0  0  0  0  0  0  0  0
    4.1250   -4.3500    0.0000 N   0  0  0  0  0  0  0  0  0  0  0  0
   -1.0040    1.5170    0.0000 C   0  0  0  0  0  0  0  0  0  0  0  0
   -1.0040   -1.5130    0.0000 C   0  0  0  0  0  0  0  0  0  0  0  0
    5.5960   -4.6540    0.0000 C   0  0  0  0  0  0  0  0  0  0  0  0
    3.1250   -5.4710    0.0000 C   0  0  0  0  0  0  0  0  0  0  0  0
   -2.3170    0.7500    0.0000 C   0  0  0  0  0  0  0  0  0  0  0  0
   -2.3170   -0.7460    0.0000 C   0  0  0  0  0  0  0  0  0  0  0  0
    5.9750   -5.7960    0.0000 C   0  0  0  0  0  0  0  0  0  0  0  0
    1.9500   -5.2250    0.0000 C   0  0  0  0  0  0  0  0  0  0  0  0
  1  6  1  0  0  0  0
  1  4  1  0  0  0  0
  1  2  2  0  0  0  0
  2  8  1  0  0  0  0
  2  3  1  0  0  0  0
  3  5  1  0  0  0  0
  3  7  1  0  0  0  0
  4  5  2  0  0  0  0
  4 12  1  0  0  0  0
  5 13  1  0  0  0  0
  6  9  2  0  0  0  0
  7 10  1  0  0  0  0
 10 11  1  0  0  0  0
 11 14  1  0  0  0  0
 11 15  1  0  0  0  0
 12 16  2  0  0  0  0
 13 17  2  0  0  0  0
 14 18  1  0  0  0  0
 15 19  1  0  0  0  0
 16 17  1  0  0  0  0
M  END
$$$$
4240341
  MOE2005           2D

 33 37  0  0  1  0  0  0  0  0999 V2000
   -2.1400    5.5520    0.0000 C   0  0  0  0  0  0  0  0  0  0  0  0
   -2.1400    4.1520    0.0000 O   0  0  0  0  0  0  0  0  0  0  0  0
   -3.3530    3.4520    0.0000 C   0  0  0  0  0  0  0  0  0  0  0  0
   -4.5650    4.1520    0.0000 C   0  0  0  0  0  0  0  0  0  0  0  0
   -5.7780    3.4520    0.0000 C   0  0  0  0  0  0  0  0  0  0  0  0
   -5.7780    2.0520    0.0000 C   0  0  0  0  0  0  0  0  0  0  0  0
   -4.5650    1.3520    0.0000 C   0  0  0  0  0  0  0  0  0  0  0  0
   -4.5650   -0.0470    0.0000 N   0  0  0  0  0  0  0  0  0  0  0  0
   -3.3530   -0.7480    0.0000 C   0  0  0  0  0  0  0  0  0  0  0  0
   -2.1400   -0.0470    0.0000 N   0  0  0  0  0  0  0  0  0  0  0  0
   -0.9280   -0.7480    0.0000 C   0  0  0  0  0  0  0  0  0  0  0  0
   -0.9280   -2.1480    0.0000 C   0  0  0  0  0  0  0  0  0  0  0  0
   -2.1400   -2.8470    0.0000 C   0  0  0  0  0  0  0  0  0  0  0  0
   -3.3530   -2.1480    0.0000 N   0  0  0  0  0  0  0  0  0  0  0  0
    0.2850   -2.8470    0.0000 N   0  0  0  0  0  0  0  0  0  0  0  0
    1.4970   -2.1480    0.0000 C   0  0  0  0  0  0  0  0  0  0  0  0
    1.4970   -0.7480    0.0000 C   0  0  0  0  0  0  0  0  0  0  0  0
    2.7100   -0.0470    0.0000 O   0  0  0  0  0  0  0  0  0  0  0  0
    0.2850   -0.0470    0.0000 N   0  0  0  0  0  0  0  0  0  0  0  0
    0.2850    1.3520    0.0000 C   0  0  0  0  0  0  0  0  0  0  0  0
    1.4970    2.0520    0.0000 C   0  0  3  0  0  0  0  0  0  0  0  0
    2.7760    1.4830    0.0000 C   0  0  0  0  0  0  0  0  0  0  0  0
    3.7130    2.5230    0.0000 C   0  0  0  0  0  0  0  0  0  0  0  0
    3.0120    3.7350    0.0000 C   0  0  0  0  0  0  0  0  0  0  0  0
    1.6430    3.4450    0.0000 O   0  0  0  0  0  0  0  0  0  0  0  0
    2.7100   -2.8470    0.0000 C   0  0  0  0  0  0  0  0  0  0  0  0
    2.7100   -4.2470    0.0000 C   0  0  0  0  0  0  0  0  0  0  0  0
    3.9220   -4.9480    0.0000 C   0  0  0  0  0  0  0  0  0  0  0  0
    5.1350   -4.2470    0.0000 C   0  0  0  0  0  0  0  0  0  0  0  0
    6.3460   -4.9480    0.0000 F   0  0  0  0  0  0  0  0  0  0  0  0
    5.1350   -2.8470    0.0000 C   0  0  0  0  0  0  0  0  0  0  0  0
    3.9220   -2.1480    0.0000 C   0  0  0  0  0  0  0  0  0  0  0  0
   -3.3530    2.0520    0.0000 C   0  0  0  0  0  0  0  0  0  0  0  0
  1  2  1  0  0  0  0
  2  3  1  0  0  0  0
  3  4  1  0  0  0  0
  3 33  2  0  0  0  0
  4  5  2  0  0  0  0
  5  6  1  0  0  0  0
  6  7  2  0  0  0  0
  7  8  1  0  0  0  0
  7 33  1  0  0  0  0
  8  9  1  0  0  0  0
  9 14  2  0  0  0  0
  9 10  1  0  0  0  0
 10 11  2  0  0  0  0
 11 12  1  0  0  0  0
 11 19  1  0  0  0  0
 12 13  2  0  0  0  0
 12 15  1  0  0  0  0
 13 14  1  0  0  0  0
 15 16  2  0  0  0  0
 16 26  1  0  0  0  0
 16 17  1  0  0  0  0
 17 19  1  0  0  0  0
 17 18  2  0  0  0  0
 19 20  1  0  0  0  0
 20 21  1  0  0  0  0
 21 22  1  0  0  0  0
 21 25  1  0  0  0  0
 22 23  1  0  0  0  0
 23 24  1  0  0  0  0
 24 25  1  0  0  0  0
 26 27  1  0  0  0  0
 26 32  2  0  0  0  0
 27 28  2  0  0  0  0
 28 29  1  0  0  0  0
 29 31  2  0  0  0  0
 29 30  1  0  0  0  0
 31 32  1  0  0  0  0
M  END
$$$$
858041
  MOE2005           2D

 26 28  0  0  1  0  0  0  0  0999 V2000
   -2.6130    0.7500    0.0000 C   0  0  0  0  0  0  0  0  0  0  0  0
   -2.6130   -0.7460    0.0000 C   0  0  0  0  0  0  0  0  0  0  0  0
   -1.3000   -1.4960    0.0000 N   0  0  0  0  0  0  0  0  0  0  0  0
   -1.3000    1.5000    0.0000 N   0  0  0  0  0  0  0  0  0  0  0  0
   -3.9130    1.5040    0.0000 C   0  0  3  0  0  0  0  0  0  0  0  0
   -3.9130   -1.5000    0.0000 N   0  0  0  0  0  0  0  0  0  0  0  0
   -3.9080    3.0040    0.0000 C   0  0  0  0  0  0  0  0  0  0  0  0
   -5.2130    0.7540    0.0000 C   0  0  0  0  0  0  0  0  0  0  0  0
   -6.2500    0.1580    0.0000 N   0  0  0  0  0  0  0  0  0  0  0  0
    0.0000   -0.7460    0.0000 C   0  0  0  0  0  0  0  0  0  0  0  0
    0.0000    0.7500    0.0000 C   0  0  0  0  0  0  0  0  0  0  0  0
   -2.8670    3.6040    0.0000 O   0  0  0  0  0  0  0  0  0  0  0  0
   -5.2080    3.7580    0.0000 N   0  0  0  0  0  0  0  0  0  0  0  0
   -6.5000    6.0080    0.0000 C   0  0  0  0  0  0  0  0  0  0  0  0
   -6.4960    7.2080    0.0000 C   0  0  0  0  0  0  0  0  0  0  0  0
   -5.1710   -0.6710    0.0000 C   0  0  0  0  0  0  0  0  0  0  0  0
   -3.8040   -3.0040    0.0000 C   0  0  0  0  0  0  0  0  0  0  0  0
   -5.2040    5.2540    0.0000 C   0  0  0  0  0  0  0  0  0  0  0  0
    1.2960    1.5000    0.0000 C   0  0  0  0  0  0  0  0  0  0  0  0
    1.2960   -1.4960    0.0000 C   0  0  0  0  0  0  0  0  0  0  0  0
   -4.8960   -4.0330    0.0000 C   0  0  0  0  0  0  0  0  0  0  0  0
   -6.5960   -1.1250    0.0000 C   0  0  0  0  0  0  0  0  0  0  0  0
    2.5920   -0.7460    0.0000 C   0  0  0  0  0  0  0  0  0  0  0  0
    2.5920    0.7500    0.0000 C   0  0  0  0  0  0  0  0  0  0  0  0
   -7.1330   -2.5250    0.0000 C   0  0  0  0  0  0  0  0  0  0  0  0
   -6.3750   -3.8170    0.0000 C   0  0  0  0  0  0  0  0  0  0  0  0
  1  4  2  0  0  0  0
  1  2  1  0  0  0  0
  1  5  1  0  0  0  0
  2  6  1  0  0  0  0
  2  3  2  0  0  0  0
  3 10  1  0  0  0  0
  4 11  1  0  0  0  0
  5  8  1  0  0  0  0
  5  7  1  0  0  0  0
  6 16  1  0  0  0  0
  6 17  1  0  0  0  0
  7 13  1  0  0  0  0
  7 12  2  0  0  0  0
  8  9  3  0  0  0  0
 10 11  2  0  0  0  0
 10 20  1  0  0  0  0
 11 19  1  0  0  0  0
 13 18  1  0  0  0  0
 14 18  1  0  0  0  0
 14 15  2  0  0  0  0
 16 22  1  0  0  0  0
 17 21  1  0  0  0  0
 19 24  2  0  0  0  0
 20 23  2  0  0  0  0
 21 26  1  0  0  0  0
 22 25  1  0  0  0  0
 23 24  1  0  0  0  0
 25 26  1  0  0  0  0
M  END
$$$$
4237778
  MOE2005           2D

 34 38  0  0  0  0  0  0  0  0999 V2000
    3.4590   -6.5670    0.0000 C   0  0  0  0  0  0  0  0  0  0  0  0
    2.2470   -5.8680    0.0000 O   0  0  0  0  0  0  0  0  0  0  0  0
    2.2470   -4.4680    0.0000 C   0  0  0  0  0  0  0  0  0  0  0  0
    3.4590   -3.7670    0.0000 C   0  0  0  0  0  0  0  0  0  0  0  0
    3.4590   -2.3670    0.0000 C   0  0  0  0  0  0  0  0  0  0  0  0
    2.2470   -1.6680    0.0000 C   0  0  0  0  0  0  0  0  0  0  0  0
    1.0340   -2.3670    0.0000 C   0  0  0  0  0  0  0  0  0  0  0  0
   -0.1780   -1.6680    0.0000 C   0  0  0  0  0  0  0  0  0  0  0  0
   -0.1780   -0.2680    0.0000 N   0  0  0  0  0  0  0  0  0  0  0  0
    1.0340    0.4330    0.0000 C   0  0  0  0  0  0  0  0  0  0  0  0
    2.2470   -0.2680    0.0000 O   0  0  0  0  0  0  0  0  0  0  0  0
    1.0340    1.8330    0.0000 C   0  0  0  0  0  0  0  0  0  0  0  0
   -0.1780    2.5320    0.0000 N   0  0  0  0  0  0  0  0  0  0  0  0
   -1.3910    1.8330    0.0000 C   0  0  0  0  0  0  0  0  0  0  0  0
   -1.3910    0.4330    0.0000 C   0  0  0  0  0  0  0  0  0  0  0  0
   -2.6030   -0.2680    0.0000 N   0  0  0  0  0  0  0  0  0  0  0  0
   -3.8160    0.4330    0.0000 C   0  0  0  0  0  0  0  0  0  0  0  0
   -3.8160    1.8330    0.0000 N   0  0  0  0  0  0  0  0  0  0  0  0
   -2.6030    2.5320    0.0000 C   0  0  0  0  0  0  0  0  0  0  0  0
   -5.0280   -0.2680    0.0000 N   0  0  0  0  0  0  0  0  0  0  0  0
   -6.2400    0.4330    0.0000 C   0  0  0  0  0  0  0  0  0  0  0  0
   -7.4530   -0.2680    0.0000 C   0  0  0  0  0  0  0  0  0  0  0  0
   -7.4530   -1.6680    0.0000 N   0  0  0  0  0  0  0  0  0  0  0  0
   -6.2400   -2.3670    0.0000 C   0  0  0  0  0  0  0  0  0  0  0  0
   -5.0280   -1.6680    0.0000 C   0  0  0  0  0  0  0  0  0  0  0  0
    2.2470    2.5320    0.0000 C   0  0  0  0  0  0  0  0  0  0  0  0
    3.4590    1.8330    0.0000 C   0  0  0  0  0  0  0  0  0  0  0  0
    4.6720    2.5320    0.0000 C   0  0  0  0  0  0  0  0  0  0  0  0
    5.8840    1.8330    0.0000 F   0  0  0  0  0  0  0  0  0  0  0  0
    4.6720    3.9320    0.0000 C   0  0  0  0  0  0  0  0  0  0  0  0
    3.4590    4.6330    0.0000 C   0  0  0  0  0  0  0  0  0  0  0  0
    3.4590    6.0330    0.0000 F   0  0  0  0  0  0  0  0  0  0  0  0
    2.2470    3.9320    0.0000 C   0  0  0  0  0  0  0  0  0  0  0  0
    1.0340   -3.7670    0.0000 C   0  0  0  0  0  0  0  0  0  0  0  0
  1  2  1  0  0  0  0
  2  3  1  0  0  0  0
  3  4  1  0  0  0  0
  3 34  2  0  0  0  0
  4  5  2  0  0  0  0
  5  6  1  0  0  0  0
  6  7  2  0  0  0  0
  7  8  1  0  0  0  0
  7 34  1  0  0  0  0
  8  9  1  0  0  0  0
  9 10  1  0  0  0  0
  9 15  1  0  0  0  0
 10 11  2  0  0  0  0
 10 12  1  0  0  0  0
 12 13  2  0  0  0  0
 12 26  1  0  0  0  0
 13 14  1  0  0  0  0
 14 19  2  0  0  0  0
 14 15  1  0  0  0  0
 15 16  2  0  0  0  0
 16 17  1  0  0  0  0
 17 18  2  0  0  0  0
 17 20  1  0  0  0  0
 18 19  1  0  0  0  0
 20 21  1  0  0  0  0
 20 25  1  0  0  0  0
 21 22  1  0  0  0  0
 22 23  1  0  0  0  0
 23 24  1  0  0  0  0
 24 25  1  0  0  0  0
 26 27  1  0  0  0  0
 26 33  2  0  0  0  0
 27 28  2  0  0  0  0
 28 29  1  0  0  0  0
 28 30  1  0  0  0  0
 30 31  2  0  0  0  0
 31 32  1  0  0  0  0
 31 33  1  0  0  0  0
M  END
$$$$
4238419
  MOE2005           2D

 28 31  0  0  0  0  0  0  0  0999 V2000
    6.6250   -0.2750    0.0000 C   0  0  0  0  0  0  0  0  0  0  0  0
    5.4130    0.4240    0.0000 N   0  0  0  0  0  0  0  0  0  0  0  0
    5.4130    1.8240    0.0000 C   0  0  0  0  0  0  0  0  0  0  0  0
    4.2000   -0.2750    0.0000 C   0  0  0  0  0  0  0  0  0  0  0  0
    2.9880    0.4240    0.0000 N   0  0  0  0  0  0  0  0  0  0  0  0
    1.7750   -0.2750    0.0000 C   0  0  0  0  0  0  0  0  0  0  0  0
    1.7750   -1.6750    0.0000 C   0  0  0  0  0  0  0  0  0  0  0  0
    2.9880   -2.3760    0.0000 C   0  0  0  0  0  0  0  0  0  0  0  0
    4.2000   -1.6750    0.0000 N   0  0  0  0  0  0  0  0  0  0  0  0
    0.5630   -2.3760    0.0000 N   0  0  0  0  0  0  0  0  0  0  0  0
   -0.6500   -1.6750    0.0000 C   0  0  0  0  0  0  0  0  0  0  0  0
   -0.6500   -0.2750    0.0000 C   0  0  0  0  0  0  0  0  0  0  0  0
   -1.8620    0.4240    0.0000 O   0  0  0  0  0  0  0  0  0  0  0  0
    0.5630    0.4240    0.0000 N   0  0  0  0  0  0  0  0  0  0  0  0
    0.5630    1.8240    0.0000 C   0  0  0  0  0  0  0  0  0  0  0  0
   -0.6500    2.5250    0.0000 C   0  0  0  0  0  0  0  0  0  0  0  0
   -0.6500    3.9250    0.0000 C   0  0  0  0  0  0  0  0  0  0  0  0
   -1.8620    4.6250    0.0000 C   0  0  0  0  0  0  0  0  0  0  0  0
   -3.0750    3.9250    0.0000 C   0  0  0  0  0  0  0  0  0  0  0  0
   -4.2870    4.6250    0.0000 F   0  0  0  0  0  0  0  0  0  0  0  0
   -3.0750    2.5250    0.0000 C   0  0  0  0  0  0  0  0  0  0  0  0
   -1.8620    1.8240    0.0000 C   0  0  0  0  0  0  0  0  0  0  0  0
   -1.8620   -2.3760    0.0000 C   0  0  0  0  0  0  0  0  0  0  0  0
   -3.0750   -1.6750    0.0000 C   0  0  0  0  0  0  0  0  0  0  0  0
   -4.2870   -2.3760    0.0000 C   0  0  0  0  0  0  0  0  0  0  0  0
   -4.2870   -3.7760    0.0000 C   0  0  0  0  0  0  0  0  0  0  0  0
   -3.0750   -4.4750    0.0000 C   0  0  0  0  0  0  0  0  0  0  0  0
   -1.8620   -3.7760    0.0000 C   0  0  0  0  0  0  0  0  0  0  0  0
  1  2  1  0  0  0  0
  2  3  1  0  0  0  0
  2  4  1  0  0  0  0
  4  5  1  0  0  0  0
  4  9  2  0  0  0  0
  5  6  2  0  0  0  0
  6  7  1  0  0  0  0
  6 14  1  0  0  0  0
  7  8  2  0  0  0  0
  7 10  1  0  0  0  0
  8  9  1  0  0  0  0
 10 11  2  0  0  0  0
 11 12  1  0  0  0  0
 11 23  1  0  0  0  0
 12 13  2  0  0  0  0
 12 14  1  0  0  0  0
 14 15  1  0  0  0  0
 15 16  1  0  0  0  0
 16 17  1  0  0  0  0
 16 22  2  0  0  0  0
 17 18  2  0  0  0  0
 18 19  1  0  0  0  0
 19 20  1  0  0  0  0
 19 21  2  0  0  0  0
 21 22  1  0  0  0  0
 23 24  1  0  0  0  0
 23 28  2  0  0  0  0
 24 25  2  0  0  0  0
 25 26  1  0  0  0  0
 26 27  2  0  0  0  0
 27 28  1  0  0  0  0
M  END
$$$$
4239991
  MOE2005           2D
