3235249
  MOE2005           2D

 59 63  0  0  0  0  0  0  0  0999 V2000
    2.0000    3.2500    0.0000 Cl  0  0  0  0  0  0  0  0  0  0  0  0
    2.8660   -1.2500    0.0000 O   0  0  0  0  0  0  0  0  0  0  0  0
    4.5980   -0.2500    0.0000 O   0  0  0  0  0  0  0  0  0  0  0  0
   11.5880   -1.2810    0.0000 N   0  0  0  0  0  0  0  0  0  0  0  0
    9.8600   -0.2740    0.0000 N   0  0  0  0  0  0  0  0  0  0  0  0
    6.3300   -0.2500    0.0000 N   0  0  0  0  0  0  0  0  0  0  0  0
    8.0900   -0.2850    0.0000 N   0  0  0  0  0  0  0  0  0  0  0  0
    6.3300    1.7500    0.0000 N   0  0  0  0  0  0  0  0  0  0  0  0
    8.9960    1.2710    0.0000 N   0  0  0  0  0  0  0  0  0  0  0  0
    6.3300   -1.2500    0.0000 C   0  0  0  0  0  0  0  0  0  0  0  0
    2.0000   -1.7500    0.0000 C   0  0  0  0  0  0  0  0  0  0  0  0
   12.4530   -1.7840    0.0000 C   0  0  0  0  0  0  0  0  0  0  0  0
   11.5920   -0.2810    0.0000 C   0  0  0  0  0  0  0  0  0  0  0  0
   10.7210   -1.7780    0.0000 C   0  0  0  0  0  0  0  0  0  0  0  0
   10.7280    0.2230    0.0000 C   0  0  0  0  0  0  0  0  0  0  0  0
    9.8560   -1.2740    0.0000 C   0  0  0  0  0  0  0  0  0  0  0  0
    8.9960    0.2290    0.0000 C   0  0  0  0  0  0  0  0  0  0  0  0
    5.4640    0.2500    0.0000 C   0  0  0  0  0  0  0  0  0  0  0  0
    7.1960    0.2500    0.0000 C   0  0  0  0  0  0  0  0  0  0  0  0
    5.4640    1.2500    0.0000 C   0  0  0  0  0  0  0  0  0  0  0  0
    2.8660    2.7500    0.0000 C   0  0  0  0  0  0  0  0  0  0  0  0
    3.7320   -1.7500    0.0000 C   0  0  0  0  0  0  0  0  0  0  0  0
    7.1960    1.2500    0.0000 C   0  0  0  0  0  0  0  0  0  0  0  0
    5.4640   -1.7500    0.0000 C   0  0  0  0  0  0  0  0  0  0  0  0
    4.5980    1.7500    0.0000 C   0  0  0  0  0  0  0  0  0  0  0  0
    8.0900    1.7850    0.0000 C   0  0  0  0  0  0  0  0  0  0  0  0
    4.5980   -1.2500    0.0000 C   0  0  0  0  0  0  0  0  0  0  0  0
    3.7320    3.2500    0.0000 C   0  0  0  0  0  0  0  0  0  0  0  0
    2.8660    1.7500    0.0000 C   0  0  0  0  0  0  0  0  0  0  0  0
    3.7320   -2.7500    0.0000 C   0  0  0  0  0  0  0  0  0  0  0  0
    5.4640   -2.7500    0.0000 C   0  0  0  0  0  0  0  0  0  0  0  0
    3.7320    1.2500    0.0000 C   0  0  0  0  0  0  0  0  0  0  0  0
    4.5980    2.7500    0.0000 C   0  0  0  0  0  0  0  0  0  0  0  0
    4.5980   -3.2500    0.0000 C   0  0  0  0  0  0  0  0  0  0  0  0
    6.9410   -1.1420    0.0000 H   0  0  0  0  0  0  0  0  0  0  0  0
    6.5420   -1.8330    0.0000 H   0  0  0  0  0  0  0  0  0  0  0  0
    1.6900   -1.2130    0.0000 H   0  0  0  0  0  0  0  0  0  0  0  0
    1.4630   -2.0600    0.0000 H   0  0  0  0  0  0  0  0  0  0  0  0
    2.3100   -2.2870    0.0000 H   0  0  0  0  0  0  0  0  0  0  0  0
   12.1410   -2.3200    0.0000 H   0  0  0  0  0  0  0  0  0  0  0  0
   12.9880   -2.0960    0.0000 H   0  0  0  0  0  0  0  0  0  0  0  0
   12.7650   -1.2480    0.0000 H   0  0  0  0  0  0  0  0  0  0  0  0
   11.1170   -2.2540    0.0000 H   0  0  0  0  0  0  0  0  0  0  0  0
   10.3200   -2.2510    0.0000 H   0  0  0  0  0  0  0  0  0  0  0  0
   11.8070    0.3010    0.0000 H   0  0  0  0  0  0  0  0  0  0  0  0
   12.2030   -0.3910    0.0000 H   0  0  0  0  0  0  0  0  0  0  0  0
   11.1290    0.6960    0.0000 H   0  0  0  0  0  0  0  0  0  0  0  0
   10.3320    0.6990    0.0000 H   0  0  0  0  0  0  0  0  0  0  0  0
    9.2460   -1.1640    0.0000 H   0  0  0  0  0  0  0  0  0  0  0  0
    9.6420   -1.8560    0.0000 H   0  0  0  0  0  0  0  0  0  0  0  0
    8.0830    2.4050    0.0000 H   0  0  0  0  0  0  0  0  0  0  0  0
    4.5980   -0.6300    0.0000 H   0  0  0  0  0  0  0  0  0  0  0  0
    2.3290    1.4400    0.0000 H   0  0  0  0  0  0  0  0  0  0  0  0
    3.7320    3.8700    0.0000 H   0  0  0  0  0  0  0  0  0  0  0  0
    3.1950   -3.0600    0.0000 H   0  0  0  0  0  0  0  0  0  0  0  0
    6.0010   -3.0600    0.0000 H   0  0  0  0  0  0  0  0  0  0  0  0
    3.7320    0.6300    0.0000 H   0  0  0  0  0  0  0  0  0  0  0  0
    5.1350    3.0600    0.0000 H   0  0  0  0  0  0  0  0  0  0  0  0
    4.5980   -3.8700    0.0000 H   0  0  0  0  0  0  0  0  0  0  0  0
  1 21  1  0  0  0  0
  2 22  1  0  0  0  0
  2 11  1  0  0  0  0
  3 18  2  0  0  0  0
  4 14  1  0  0  0  0
  4 13  1  0  0  0  0
  4 12  1  0  0  0  0
  5 17  1  0  0  0  0
  5 16  1  0  0  0  0
  5 15  1  0  0  0  0
  6 18  1  0  0  0  0
  6 19  1  0  0  0  0
  6 10  1  0  0  0  0
  7 19  2  0  0  0  0
  7 17  1  0  0  0  0
  8 20  2  0  0  0  0
  8 23  1  0  0  0  0
  9 17  2  0  0  0  0
  9 26  1  0  0  0  0
 10 24  1  0  0  0  0
 10 35  1  0  0  0  0
 10 36  1  0  0  0  0
 11 37  1  0  0  0  0
 11 38  1  0  0  0  0
 11 39  1  0  0  0  0
 12 40  1  0  0  0  0
 12 41  1  0  0  0  0
 12 42  1  0  0  0  0
 13 46  1  0  0  0  0
 13 45  1  0  0  0  0
 13 15  1  0  0  0  0
 14 16  1  0  0  0  0
 14 43  1  0  0  0  0
 14 44  1  0  0  0  0
 15 47  1  0  0  0  0
 15 48  1  0  0  0  0
 16 49  1  0  0  0  0
 16 50  1  0  0  0  0
 18 20  1  0  0  0  0
 19 23  1  0  0  0  0
 20 25  1  0  0  0  0
 21 28  1  0  0  0  0
 21 29  2  0  0  0  0
 22 27  2  0  0  0  0
 22 30  1  0  0  0  0
 23 26  2  0  0  0  0
 24 27  1  0  0  0  0
 24 31  2  0  0  0  0
 25 33  1  0  0  0  0
 25 32  2  0  0  0  0
 26 51  1  0  0  0  0
 27 52  1  0  0  0  0
 28 33  2  0  0  0  0
 28 54  1  0  0  0  0
 29 53  1  0  0  0  0
 29 32  1  0  0  0  0
 30 34  2  0  0  0  0
 30 55  1  0  0  0  0
 31 56  1  0  0  0  0
 31 34  1  0  0  0  0
 32 57  1  0  0  0  0
 33 58  1  0  0  0  0
 34 59  1  0  0  0  0
M  END
$$$$
3235252
  MOE2005           2D

 54 58  0  0  0  0  0  0  0  0999 V2000
   10.7220   -0.5310    0.0000 O   0  0  0  0  0  0  0  0  0  0  0  0
    3.7320    0.5000    0.0000 O   0  0  0  0  0  0  0  0  0  0  0  0
    8.9940    0.4760    0.0000 N   0  0  0  0  0  0  0  0  0  0  0  0
    5.4640    0.5000    0.0000 N   0  0  0  0  0  0  0  0  0  0  0  0
    7.2240    0.4650    0.0000 N   0  0  0  0  0  0  0  0  0  0  0  0
    5.4640    2.5000    0.0000 N   0  0  0  0  0  0  0  0  0  0  0  0
    8.1300    2.0210    0.0000 N   0  0  0  0  0  0  0  0  0  0  0  0
    5.4640   -0.5000    0.0000 C   0  0  0  0  0  0  0  0  0  0  0  0
    4.5980   -1.0000    0.0000 C   0  0  0  0  0  0  0  0  0  0  0  0
   10.7260    0.4690    0.0000 C   0  0  0  0  0  0  0  0  0  0  0  0
    9.8550   -1.0280    0.0000 C   0  0  0  0  0  0  0  0  0  0  0  0
    8.9900   -0.5240    0.0000 C   0  0  0  0  0  0  0  0  0  0  0  0
    9.8620    0.9730    0.0000 C   0  0  0  0  0  0  0  0  0  0  0  0
    8.1300    0.9790    0.0000 C   0  0  0  0  0  0  0  0  0  0  0  0
    4.5980    1.0000    0.0000 C   0  0  0  0  0  0  0  0  0  0  0  0
    6.3300    1.0000    0.0000 C   0  0  0  0  0  0  0  0  0  0  0  0
    4.5980    2.0000    0.0000 C   0  0  0  0  0  0  0  0  0  0  0  0
    6.3300    2.0000    0.0000 C   0  0  0  0  0  0  0  0  0  0  0  0
    4.5980   -2.0000    0.0000 C   0  0  0  0  0  0  0  0  0  0  0  0
    3.7320    2.5000    0.0000 C   0  0  0  0  0  0  0  0  0  0  0  0
    7.2240    2.5350    0.0000 C   0  0  0  0  0  0  0  0  0  0  0  0
    5.4640   -2.5000    0.0000 C   0  0  0  0  0  0  0  0  0  0  0  0
    3.7320   -2.5000    0.0000 C   0  0  0  0  0  0  0  0  0  0  0  0
    3.7320    3.5000    0.0000 C   0  0  0  0  0  0  0  0  0  0  0  0
    2.8660    2.0000    0.0000 C   0  0  0  0  0  0  0  0  0  0  0  0
    3.7320   -3.5000    0.0000 C   0  0  0  0  0  0  0  0  0  0  0  0
    5.4640   -3.5000    0.0000 C   0  0  0  0  0  0  0  0  0  0  0  0
    2.8660    4.0000    0.0000 C   0  0  0  0  0  0  0  0  0  0  0  0
    2.0000    2.5000    0.0000 C   0  0  0  0  0  0  0  0  0  0  0  0
    4.5980   -4.0000    0.0000 C   0  0  0  0  0  0  0  0  0  0  0  0
    2.0000    3.5000    0.0000 C   0  0  0  0  0  0  0  0  0  0  0  0
    6.0750   -0.3920    0.0000 H   0  0  0  0  0  0  0  0  0  0  0  0
    5.6760   -1.0830    0.0000 H   0  0  0  0  0  0  0  0  0  0  0  0
    3.9880   -1.1080    0.0000 H   0  0  0  0  0  0  0  0  0  0  0  0
    4.3860   -0.4170    0.0000 H   0  0  0  0  0  0  0  0  0  0  0  0
   10.9410    1.0510    0.0000 H   0  0  0  0  0  0  0  0  0  0  0  0
   11.3360    0.3590    0.0000 H   0  0  0  0  0  0  0  0  0  0  0  0
    9.4540   -1.5010    0.0000 H   0  0  0  0  0  0  0  0  0  0  0  0
   10.2510   -1.5040    0.0000 H   0  0  0  0  0  0  0  0  0  0  0  0
    8.3800   -0.4140    0.0000 H   0  0  0  0  0  0  0  0  0  0  0  0
    8.7760   -1.1060    0.0000 H   0  0  0  0  0  0  0  0  0  0  0  0
   10.2630    1.4460    0.0000 H   0  0  0  0  0  0  0  0  0  0  0  0
    9.4660    1.4490    0.0000 H   0  0  0  0  0  0  0  0  0  0  0  0
    7.2170    3.1550    0.0000 H   0  0  0  0  0  0  0  0  0  0  0  0
    3.1950   -2.1900    0.0000 H   0  0  0  0  0  0  0  0  0  0  0  0
    6.0010   -2.1900    0.0000 H   0  0  0  0  0  0  0  0  0  0  0  0
    2.8660    1.3800    0.0000 H   0  0  0  0  0  0  0  0  0  0  0  0
    4.2690    3.8100    0.0000 H   0  0  0  0  0  0  0  0  0  0  0  0
    6.0010   -3.8100    0.0000 H   0  0  0  0  0  0  0  0  0  0  0  0
    3.1950   -3.8100    0.0000 H   0  0  0  0  0  0  0  0  0  0  0  0
    2.8660    4.6200    0.0000 H   0  0  0  0  0  0  0  0  0  0  0  0
    1.4630    2.1900    0.0000 H   0  0  0  0  0  0  0  0  0  0  0  0
    4.5980   -4.6200    0.0000 H   0  0  0  0  0  0  0  0  0  0  0  0
    1.4630    3.8100    0.0000 H   0  0  0  0  0  0  0  0  0  0  0  0
  1 10  1  0  0  0  0
  1 11  1  0  0  0  0
  2 15  2  0  0  0  0
  3 13  1  0  0  0  0
  3 14  1  0  0  0  0
  3 12  1  0  0  0  0
  4 16  1  0  0  0  0
  4  8  1  0  0  0  0
  4 15  1  0  0  0  0
  5 14  1  0  0  0  0
  5 16  2  0  0  0  0
  6 18  1  0  0  0  0
  6 17  2  0  0  0  0
  7 14  2  0  0  0  0
  7 21  1  0  0  0  0
  8  9  1  0  0  0  0
  8 32  1  0  0  0  0
  8 33  1  0  0  0  0
  9 19  1  0  0  0  0
  9 34  1  0  0  0  0
  9 35  1  0  0  0  0
 10 37  1  0  0  0  0
 10 36  1  0  0  0  0
 10 13  1  0  0  0  0
 11 38  1  0  0  0  0
 11 39  1  0  0  0  0
 11 12  1  0  0  0  0
 12 40  1  0  0  0  0
 12 41  1  0  0  0  0
 13 42  1  0  0  0  0
 13 43  1  0  0  0  0
 15 17  1  0  0  0  0
 16 18  1  0  0  0  0
 17 20  1  0  0  0  0
 18 21  2  0  0  0  0
 19 22  2  0  0  0  0
 19 23  1  0  0  0  0
 20 24  2  0  0  0  0
 20 25  1  0  0  0  0
 21 44  1  0  0  0  0
 22 27  1  0  0  0  0
 22 46  1  0  0  0  0
 23 45  1  0  0  0  0
 23 26  2  0  0  0  0
 24 28  1  0  0  0  0
 24 48  1  0  0  0  0
 25 47  1  0  0  0  0
 25 29  2  0  0  0  0
 26 30  1  0  0  0  0
 26 50  1  0  0  0  0
 27 30  2  0  0  0  0
 27 49  1  0  0  0  0
 28 31  2  0  0  0  0
 28 51  1  0  0  0  0
 29 31  1  0  0  0  0
 29 52  1  0  0  0  0
 30 53  1  0  0  0  0
 31 54  1  0  0  0  0
M  END
$$$$
3235261
  MOE2005           2D

 49 52  0  0  0  0  0  0  0  0999 V2000
    3.7320    4.5000    0.0000 F   0  0  0  0  0  0  0  0  0  0  0  0
    2.0000    1.5000    0.0000 F   0  0  0  0  0  0  0  0  0  0  0  0
    4.5980    0.0000    0.0000 O   0  0  0  0  0  0  0  0  0  0  0  0
    9.8600   -0.0240    0.0000 N   0  0  0  0  0  0  0  0  0  0  0  0
    6.3300    0.0000    0.0000 N   0  0  0  0  0  0  0  0  0  0  0  0
    8.0900   -0.0350    0.0000 N   0  0  0  0  0  0  0  0  0  0  0  0
    6.3300    2.0000    0.0000 N   0  0  0  0  0  0  0  0  0  0  0  0
    8.9960    1.5210    0.0000 N   0  0  0  0  0  0  0  0  0  0  0  0
    6.3300   -1.0000    0.0000 C   0  0  0  0  0  0  0  0  0  0  0  0
    5.4640   -1.5000    0.0000 C   0  0  0  0  0  0  0  0  0  0  0  0
   10.7280    0.4730    0.0000 C   0  0  0  0  0  0  0  0  0  0  0  0
    9.8560   -1.0240    0.0000 C   0  0  0  0  0  0  0  0  0  0  0  0
    8.9960    0.4790    0.0000 C   0  0  0  0  0  0  0  0  0  0  0  0
    5.4640    0.5000    0.0000 C   0  0  0  0  0  0  0  0  0  0  0  0
    7.1960    0.5000    0.0000 C   0  0  0  0  0  0  0  0  0  0  0  0
    5.4640    1.5000    0.0000 C   0  0  0  0  0  0  0  0  0  0  0  0
    2.8660    2.0000    0.0000 C   0  0  0  0  0  0  0  0  0  0  0  0
    3.7320    3.5000    0.0000 C   0  0  0  0  0  0  0  0  0  0  0  0
    7.1960    1.5000    0.0000 C   0  0  0  0  0  0  0  0  0  0  0  0
    5.4640   -2.5000    0.0000 C   0  0  0  0  0  0  0  0  0  0  0  0
    4.5980    2.0000    0.0000 C   0  0  0  0  0  0  0  0  0  0  0  0
    8.0900    2.0350    0.0000 C   0  0  0  0  0  0  0  0  0  0  0  0
    2.8660    3.0000    0.0000 C   0  0  0  0  0  0  0  0  0  0  0  0
    4.5980    3.0000    0.0000 C   0  0  0  0  0  0  0  0  0  0  0  0
    3.7320    1.5000    0.0000 C   0  0  0  0  0  0  0  0  0  0  0  0
    4.5980   -3.0000    0.0000 C   0  0  0  0  0  0  0  0  0  0  0  0
    6.3300   -3.0000    0.0000 C   0  0  0  0  0  0  0  0  0  0  0  0
    4.5980   -4.0000    0.0000 C   0  0  0  0  0  0  0  0  0  0  0  0
    6.3300   -4.0000    0.0000 C   0  0  0  0  0  0  0  0  0  0  0  0
    5.4640   -4.5000    0.0000 C   0  0  0  0  0  0  0  0  0  0  0  0
    6.9410   -0.8920    0.0000 H   0  0  0  0  0  0  0  0  0  0  0  0
    6.5420   -1.5830    0.0000 H   0  0  0  0  0  0  0  0  0  0  0  0
    4.8540   -1.6080    0.0000 H   0  0  0  0  0  0  0  0  0  0  0  0
    5.2520   -0.9170    0.0000 H   0  0  0  0  0  0  0  0  0  0  0  0
   11.0360   -0.0660    0.0000 H   0  0  0  0  0  0  0  0  0  0  0  0
   11.2660    0.7800    0.0000 H   0  0  0  0  0  0  0  0  0  0  0  0
   10.4760   -1.0270    0.0000 H   0  0  0  0  0  0  0  0  0  0  0  0
    9.8540   -1.6440    0.0000 H   0  0  0  0  0  0  0  0  0  0  0  0
    9.2360   -1.0220    0.0000 H   0  0  0  0  0  0  0  0  0  0  0  0
   10.4200    1.0110    0.0000 H   0  0  0  0  0  0  0  0  0  0  0  0
    8.0830    2.6550    0.0000 H   0  0  0  0  0  0  0  0  0  0  0  0
    2.3290    3.3100    0.0000 H   0  0  0  0  0  0  0  0  0  0  0  0
    3.7320    0.8800    0.0000 H   0  0  0  0  0  0  0  0  0  0  0  0
    5.1350    3.3100    0.0000 H   0  0  0  0  0  0  0  0  0  0  0  0
    6.8670   -2.6900    0.0000 H   0  0  0  0  0  0  0  0  0  0  0  0
    4.0610   -2.6900    0.0000 H   0  0  0  0  0  0  0  0  0  0  0  0
    6.8670   -4.3100    0.0000 H   0  0  0  0  0  0  0  0  0  0  0  0
    4.0610   -4.3100    0.0000 H   0  0  0  0  0  0  0  0  0  0  0  0
    5.4640   -5.1200    0.0000 H   0  0  0  0  0  0  0  0  0  0  0  0
  1 18  1  0  0  0  0
  2 17  1  0  0  0  0
  3 14  2  0  0  0  0
  4 13  1  0  0  0  0
  4 12  1  0  0  0  0
  4 11  1  0  0  0  0
  5 14  1  0  0  0  0
  5 15  1  0  0  0  0
  5  9  1  0  0  0  0
  6 15  2  0  0  0  0
  6 13  1  0  0  0  0
  7 16  2  0  0  0  0
  7 19  1  0  0  0  0
  8 13  2  0  0  0  0
  8 22  1  0  0  0  0
  9 10  1  0  0  0  0
  9 31  1  0  0  0  0
  9 32  1  0  0  0  0
 10 20  1  0  0  0  0
 10 33  1  0  0  0  0
 10 34  1  0  0  0  0
 11 35  1  0  0  0  0
 11 36  1  0  0  0  0
 11 40  1  0  0  0  0
 12 37  1  0  0  0  0
 12 38  1  0  0  0  0
 12 39  1  0  0  0  0
 14 16  1  0  0  0  0
 15 19  1  0  0  0  0
 16 21  1  0  0  0  0
 17 23  2  0  0  0  0
 17 25  1  0  0  0  0
 18 23  1  0  0  0  0
 18 24  2  0  0  0  0
 19 22  2  0  0  0  0
 20 26  2  0  0  0  0
 20 27  1  0  0  0  0
 21 25  2  0  0  0  0
 21 24  1  0  0  0  0
 22 41  1  0  0  0  0
 23 42  1  0  0  0  0
 24 44  1  0  0  0  0
 25 43  1  0  0  0  0
 26 28  1  0  0  0  0
 26 46  1  0  0  0  0
 27 45  1  0  0  0  0
 27 29  2  0  0  0  0
 28 30  2  0  0  0  0
 28 48  1  0  0  0  0
 29 30  1  0  0  0  0
 29 47  1  0  0  0  0
 30 49  1  0  0  0  0
M  END
$$$$
3235300
  MOE2005           2D

 46 49  0  0  0  0  0  0  0  0999 V2000
    2.0000    2.0140    0.0000 O   0  0  0  0  0  0  0  0  0  0  0  0
    4.5980   -1.4860    0.0000 O   0  0  0  0  0  0  0  0  0  0  0  0
    9.8600   -1.5100    0.0000 N   0  0  0  0  0  0  0  0  0  0  0  0
   11.5880   -2.5170    0.0000 N   0  0  0  0  0  0  0  0  0  0  0  0
    6.3300   -1.4860    0.0000 N   0  0  0  0  0  0  0  0  0  0  0  0
    8.0900   -1.5210    0.0000 N   0  0  0  0  0  0  0  0  0  0  0  0
    6.3300    0.5140    0.0000 N   0  0  0  0  0  0  0  0  0  0  0  0
    8.9960    0.0350    0.0000 N   0  0  0  0  0  0  0  0  0  0  0  0
    2.0000    3.0140    0.0000 C   0  0  0  0  0  0  0  0  0  0  0  0
    6.3300   -2.4860    0.0000 C   0  0  0  0  0  0  0  0  0  0  0  0
   10.7280   -1.0140    0.0000 C   0  0  0  0  0  0  0  0  0  0  0  0
    9.8560   -2.5100    0.0000 C   0  0  0  0  0  0  0  0  0  0  0  0
   11.5920   -1.5170    0.0000 C   0  0  0  0  0  0  0  0  0  0  0  0
   10.7210   -3.0140    0.0000 C   0  0  0  0  0  0  0  0  0  0  0  0
    8.9960   -1.0070    0.0000 C   0  0  0  0  0  0  0  0  0  0  0  0
    5.4640   -0.9860    0.0000 C   0  0  0  0  0  0  0  0  0  0  0  0
    7.1960   -0.9860    0.0000 C   0  0  0  0  0  0  0  0  0  0  0  0
    5.4640    0.0140    0.0000 C   0  0  0  0  0  0  0  0  0  0  0  0
    2.8660    1.5140    0.0000 C   0  0  0  0  0  0  0  0  0  0  0  0
    7.1960    0.0140    0.0000 C   0  0  0  0  0  0  0  0  0  0  0  0
    4.5980    0.5140    0.0000 C   0  0  0  0  0  0  0  0  0  0  0  0
    8.0900    0.5480    0.0000 C   0  0  0  0  0  0  0  0  0  0  0  0
    2.8660    0.5140    0.0000 C   0  0  0  0  0  0  0  0  0  0  0  0
    3.7320    2.0140    0.0000 C   0  0  0  0  0  0  0  0  0  0  0  0
    3.7320    0.0140    0.0000 C   0  0  0  0  0  0  0  0  0  0  0  0
    4.5980    1.5140    0.0000 C   0  0  0  0  0  0  0  0  0  0  0  0
   12.1240   -2.8290    0.0000 H   0  0  0  0  0  0  0  0  0  0  0  0
    1.3800    3.0140    0.0000 H   0  0  0  0  0  0  0  0  0  0  0  0
    2.6200    3.0140    0.0000 H   0  0  0  0  0  0  0  0  0  0  0  0
    2.0000    3.6340    0.0000 H   0  0  0  0  0  0  0  0  0  0  0  0
    5.7100   -2.4860    0.0000 H   0  0  0  0  0  0  0  0  0  0  0  0
    6.9500   -2.4860    0.0000 H   0  0  0  0  0  0  0  0  0  0  0  0
    6.3300   -3.1060    0.0000 H   0  0  0  0  0  0  0  0  0  0  0  0
   11.1290   -0.5400    0.0000 H   0  0  0  0  0  0  0  0  0  0  0  0
   10.3320   -0.5370    0.0000 H   0  0  0  0  0  0  0  0  0  0  0  0
    9.2460   -2.4000    0.0000 H   0  0  0  0  0  0  0  0  0  0  0  0
    9.6420   -3.0920    0.0000 H   0  0  0  0  0  0  0  0  0  0  0  0
   12.2030   -1.6270    0.0000 H   0  0  0  0  0  0  0  0  0  0  0  0
   11.8070   -0.9350    0.0000 H   0  0  0  0  0  0  0  0  0  0  0  0
   10.3200   -3.4870    0.0000 H   0  0  0  0  0  0  0  0  0  0  0  0
   11.1170   -3.4900    0.0000 H   0  0  0  0  0  0  0  0  0  0  0  0
    8.0830    1.1680    0.0000 H   0  0  0  0  0  0  0  0  0  0  0  0
    3.7320    2.6340    0.0000 H   0  0  0  0  0  0  0  0  0  0  0  0
    2.3290    0.2040    0.0000 H   0  0  0  0  0  0  0  0  0  0  0  0
    5.1350    1.8240    0.0000 H   0  0  0  0  0  0  0  0  0  0  0  0
    3.7320   -0.6060    0.0000 H   0  0  0  0  0  0  0  0  0  0  0  0
  1  9  1  0  0  0  0
  1 19  1  0  0  0  0
  2 16  2  0  0  0  0
  3 15  1  0  0  0  0
  3 12  1  0  0  0  0
  3 11  1  0  0  0  0
  4 14  1  0  0  0  0
  4 27  1  0  0  0  0
  4 13  1  0  0  0  0
  5 16  1  0  0  0  0
  5 17  1  0  0  0  0
  5 10  1  0  0  0  0
  6 17  2  0  0  0  0
  6 15  1  0  0  0  0
  7 18  2  0  0  0  0
  7 20  1  0  0  0  0
  8 15  2  0  0  0  0
  8 22  1  0  0  0  0
  9 28  1  0  0  0  0
  9 29  1  0  0  0  0
  9 30  1  0  0  0  0
 10 31  1  0  0  0  0
 10 32  1  0  0  0  0
 10 33  1  0  0  0  0
 11 35  1  0  0  0  0
 11 34  1  0  0  0  0
 11 13  1  0  0  0  0
 12 14  1  0  0  0  0
 12 36  1  0  0  0  0
 12 37  1  0  0  0  0
 13 38  1  0  0  0  0
 13 39  1  0  0  0  0
 14 40  1  0  0  0  0
 14 41  1  0  0  0  0
 16 18  1  0  0  0  0
 17 20  1  0  0  0  0
 18 21  1  0  0  0  0
 19 23  2  0  0  0  0
 19 24  1  0  0  0  0
 20 22  2  0  0  0  0
 21 25  2  0  0  0  0
 21 26  1  0  0  0  0
 22 42  1  0  0  0  0
 23 25  1  0  0  0  0
 23 44  1  0  0  0  0
 24 43  1  0  0  0  0
 24 26  2  0  0  0  0
 25 46  1  0  0  0  0
 26 45  1  0  0  0  0
M  END
$$$$
3235307
  MOE2005           2D

 49 53  0  0  0  0  0  0  0  0999 V2000
    2.0000    2.1830    0.0000 O   0  0  0  0  0  0  0  0  0  0  0  0
   11.5880   -2.3480    0.0000 O   0  0  0  0  0  0  0  0  0  0  0  0
    4.5980   -1.3170    0.0000 O   0  0  0  0  0  0  0  0  0  0  0  0
    9.8600   -1.3410    0.0000 N   0  0  0  0  0  0  0  0  0  0  0  0
    6.3300   -1.3170    0.0000 N   0  0  0  0  0  0  0  0  0  0  0  0
    8.0900   -1.3520    0.0000 N   0  0  0  0  0  0  0  0  0  0  0  0
    6.3300    0.6830    0.0000 N   0  0  0  0  0  0  0  0  0  0  0  0
    8.9960    0.2040    0.0000 N   0  0  0  0  0  0  0  0  0  0  0  0
    2.0000    3.1830    0.0000 C   0  0  0  0  0  0  0  0  0  0  0  0
    6.3300   -2.3170    0.0000 C   0  0  0  0  0  0  0  0  0  0  0  0
   10.7210   -2.8450    0.0000 C   0  0  0  0  0  0  0  0  0  0  0  0
   11.5920   -1.3480    0.0000 C   0  0  0  0  0  0  0  0  0  0  0  0
    9.8560   -2.3410    0.0000 C   0  0  0  0  0  0  0  0  0  0  0  0
   10.7280   -0.8450    0.0000 C   0  0  0  0  0  0  0  0  0  0  0  0
    5.8300   -3.1830    0.0000 C   0  0  0  0  0  0  0  0  0  0  0  0
    6.8300   -3.1830    0.0000 C   0  0  0  0  0  0  0  0  0  0  0  0
    8.9960   -0.8380    0.0000 C   0  0  0  0  0  0  0  0  0  0  0  0
    5.4640   -0.8170    0.0000 C   0  0  0  0  0  0  0  0  0  0  0  0
    7.1960   -0.8170    0.0000 C   0  0  0  0  0  0  0  0  0  0  0  0
    5.4640    0.1830    0.0000 C   0  0  0  0  0  0  0  0  0  0  0  0
    2.8660    1.6830    0.0000 C   0  0  0  0  0  0  0  0  0  0  0  0
    7.1960    0.1830    0.0000 C   0  0  0  0  0  0  0  0  0  0  0  0
    4.5980    0.6830    0.0000 C   0  0  0  0  0  0  0  0  0  0  0  0
    8.0900    0.7180    0.0000 C   0  0  0  0  0  0  0  0  0  0  0  0
    2.8660    0.6830    0.0000 C   0  0  0  0  0  0  0  0  0  0  0  0
    3.7320    2.1830    0.0000 C   0  0  0  0  0  0  0  0  0  0  0  0
    3.7320    0.1830    0.0000 C   0  0  0  0  0  0  0  0  0  0  0  0
    4.5980    1.6830    0.0000 C   0  0  0  0  0  0  0  0  0  0  0  0
    1.3800    3.1830    0.0000 H   0  0  0  0  0  0  0  0  0  0  0  0
    2.0000    3.8030    0.0000 H   0  0  0  0  0  0  0  0  0  0  0  0
    2.6200    3.1830    0.0000 H   0  0  0  0  0  0  0  0  0  0  0  0
    6.9290   -2.1570    0.0000 H   0  0  0  0  0  0  0  0  0  0  0  0
   10.3200   -3.3180    0.0000 H   0  0  0  0  0  0  0  0  0  0  0  0
   11.1170   -3.3210    0.0000 H   0  0  0  0  0  0  0  0  0  0  0  0
   12.2030   -1.4580    0.0000 H   0  0  0  0  0  0  0  0  0  0  0  0
   11.8070   -0.7660    0.0000 H   0  0  0  0  0  0  0  0  0  0  0  0
    9.2460   -2.2310    0.0000 H   0  0  0  0  0  0  0  0  0  0  0  0
    9.6420   -2.9230    0.0000 H   0  0  0  0  0  0  0  0  0  0  0  0
   11.1290   -0.3710    0.0000 H   0  0  0  0  0  0  0  0  0  0  0  0
   10.3320   -0.3680    0.0000 H   0  0  0  0  0  0  0  0  0  0  0  0
    5.2480   -2.9710    0.0000 H   0  0  0  0  0  0  0  0  0  0  0  0
    5.7230   -3.7940    0.0000 H   0  0  0  0  0  0  0  0  0  0  0  0
    6.9380   -3.7940    0.0000 H   0  0  0  0  0  0  0  0  0  0  0  0
    7.4130   -2.9710    0.0000 H   0  0  0  0  0  0  0  0  0  0  0  0
    8.0830    1.3380    0.0000 H   0  0  0  0  0  0  0  0  0  0  0  0
    3.7320    2.8030    0.0000 H   0  0  0  0  0  0  0  0  0  0  0  0
    2.3290    0.3730    0.0000 H   0  0  0  0  0  0  0  0  0  0  0  0
    5.1350    1.9930    0.0000 H   0  0  0  0  0  0  0  0  0  0  0  0
    3.7320   -0.4370    0.0000 H   0  0  0  0  0  0  0  0  0  0  0  0
  1  9  1  0  0  0  0
  1 21  1  0  0  0  0
  2 12  1  0  0  0  0
  2 11  1  0  0  0  0
  3 18  2  0  0  0  0
  4 17  1  0  0  0  0
  4 14  1  0  0  0  0
  4 13  1  0  0  0  0
  5 18  1  0  0  0  0
  5 19  1  0  0  0  0
  5 10  1  0  0  0  0
  6 19  2  0  0  0  0
  6 17  1  0  0  0  0
  7 20  2  0  0  0  0
  7 22  1  0  0  0  0
  8 17  2  0  0  0  0
  8 24  1  0  0  0  0
  9 29  1  0  0  0  0
  9 30  1  0  0  0  0
  9 31  1  0  0  0  0
 10 15  1  0  0  0  0
 10 16  1  0  0  0  0
 10 32  1  0  0  0  0
 11 34  1  0  0  0  0
 11 33  1  0  0  0  0
 11 13  1  0  0  0  0
 12 14  1  0  0  0  0
 12 35  1  0  0  0  0
 12 36  1  0  0  0  0
 13 37  1  0  0  0  0
 13 38  1  0  0  0  0
 14 39  1  0  0  0  0
 14 40  1  0  0  0  0
 15 42  1  0  0  0  0
 15 41  1  0  0  0  0
 15 16  1  0  0  0  0
 16 43  1  0  0  0  0
 16 44  1  0  0  0  0
 18 20  1  0  0  0  0
 19 22  1  0  0  0  0
 20 23  1  0  0  0  0
 21 25  2  0  0  0  0
 21 26  1  0  0  0  0
 22 24  2  0  0  0  0
 23 27  2  0  0  0  0
 23 28  1  0  0  0  0
 24 45  1  0  0  0  0
 25 27  1  0  0  0  0
 25 47  1  0  0  0  0
 26 46  1  0  0  0  0
 26 28  2  0  0  0  0
 27 49  1  0  0  0  0
 28 48  1  0  0  0  0
M  END
$$$$
3235319
  MOE2005           2D

 50 54  0  0  0  0  0  0  0  0999 V2000
    2.0000    2.1830    0.0000 O   0  0  0  0  0  0  0  0  0  0  0  0
    4.5980   -1.3170    0.0000 O   0  0  0  0  0  0  0  0  0  0  0  0
    9.8600   -1.3410    0.0000 N   0  0  0  0  0  0  0  0  0  0  0  0
   11.5880   -2.3480    0.0000 N   0  0  0  0  0  0  0  0  0  0  0  0
    6.3300   -1.3170    0.0000 N   0  0  0  0  0  0  0  0  0  0  0  0
    8.0900   -1.3520    0.0000 N   0  0  0  0  0  0  0  0  0  0  0  0
    6.3300    0.6830    0.0000 N   0  0  0  0  0  0  0  0  0  0  0  0
    8.9960    0.2040    0.0000 N   0  0  0  0  0  0  0  0  0  0  0  0
    2.0000    3.1830    0.0000 C   0  0  0  0  0  0  0  0  0  0  0  0
    6.3300   -2.3170    0.0000 C   0  0  0  0  0  0  0  0  0  0  0  0
   10.7280   -0.8450    0.0000 C   0  0  0  0  0  0  0  0  0  0  0  0
    9.8560   -2.3410    0.0000 C   0  0  0  0  0  0  0  0  0  0  0  0
   11.5920   -1.3480    0.0000 C   0  0  0  0  0  0  0  0  0  0  0  0
   10.7210   -2.8450    0.0000 C   0  0  0  0  0  0  0  0  0  0  0  0
    5.8300   -3.1830    0.0000 C   0  0  0  0  0  0  0  0  0  0  0  0
    6.8300   -3.1830    0.0000 C   0  0  0  0  0  0  0  0  0  0  0  0
    8.9960   -0.8380    0.0000 C   0  0  0  0  0  0  0  0  0  0  0  0
    5.4640   -0.8170    0.0000 C   0  0  0  0  0  0  0  0  0  0  0  0
    7.1960   -0.8170    0.0000 C   0  0  0  0  0  0  0  0  0  0  0  0
    5.4640    0.1830    0.0000 C   0  0  0  0  0  0  0  0  0  0  0  0
    2.8660    1.6830    0.0000 C   0  0  0  0  0  0  0  0  0  0  0  0
    7.1960    0.1830    0.0000 C   0  0  0  0  0  0  0  0  0  0  0  0
    4.5980    0.6830    0.0000 C   0  0  0  0  0  0  0  0  0  0  0  0
    8.0900    0.7180    0.0000 C   0  0  0  0  0  0  0  0  0  0  0  0
    2.8660    0.6830    0.0000 C   0  0  0  0  0  0  0  0  0  0  0  0
    3.7320    2.1830    0.0000 C   0  0  0  0  0  0  0  0  0  0  0  0
    3.7320    0.1830    0.0000 C   0  0  0  0  0  0  0  0  0  0  0  0
    4.5980    1.6830    0.0000 C   0  0  0  0  0  0  0  0  0  0  0  0
   12.1240   -2.6600    0.0000 H   0  0  0  0  0  0  0  0  0  0  0  0
    2.6200    3.1830    0.0000 H   0  0  0  0  0  0  0  0  0  0  0  0
    2.0000    3.8030    0.0000 H   0  0  0  0  0  0  0  0  0  0  0  0
    1.3800    3.1830    0.0000 H   0  0  0  0  0  0  0  0  0  0  0  0
    6.9290   -2.1570    0.0000 H   0  0  0  0  0  0  0  0  0  0  0  0
    9.6420   -2.9230    0.0000 H   0  0  0  0  0  0  0  0  0  0  0  0
    9.2460   -2.2310    0.0000 H   0  0  0  0  0  0  0  0  0  0  0  0
   10.3320   -0.3680    0.0000 H   0  0  0  0  0  0  0  0  0  0  0  0
   11.1290   -0.3710    0.0000 H   0  0  0  0  0  0  0  0  0  0  0  0
   11.1170   -3.3210    0.0000 H   0  0  0  0  0  0  0  0  0  0  0  0
   10.3200   -3.3180    0.0000 H   0  0  0  0  0  0  0  0  0  0  0  0
   11.8070   -0.7660    0.0000 H   0  0  0  0  0  0  0  0  0  0  0  0
   12.2030   -1.4580    0.0000 H   0  0  0  0  0  0  0  0  0  0  0  0
    7.4130   -2.9710    0.0000 H   0  0  0  0  0  0  0  0  0  0  0  0
    6.9380   -3.7940    0.0000 H   0  0  0  0  0  0  0  0  0  0  0  0
    5.7230   -3.7940    0.0000 H   0  0  0  0  0  0  0  0  0  0  0  0
    5.2480   -2.9710    0.0000 H   0  0  0  0  0  0  0  0  0  0  0  0
    8.0830    1.3380    0.0000 H   0  0  0  0  0  0  0  0  0  0  0  0
    2.3290    0.3730    0.0000 H   0  0  0  0  0  0  0  0  0  0  0  0
    3.7320    2.8030    0.0000 H   0  0  0  0  0  0  0  0  0  0  0  0
    3.7320   -0.4370    0.0000 H   0  0  0  0  0  0  0  0  0  0  0  0
    5.1350    1.9930    0.0000 H   0  0  0  0  0  0  0  0  0  0  0  0
  1  9  1  0  0  0  0
  1 21  1  0  0  0  0
  2 18  2  0  0  0  0
  3 17  1  0  0  0  0
  3 12  1  0  0  0  0
  3 11  1  0  0  0  0
  4 14  1  0  0  0  0
  4 29  1  0  0  0  0
  4 13  1  0  0  0  0
  5 18  1  0  0  0  0
  5 19  1  0  0  0  0
  5 10  1  0  0  0  0
  6 19  2  0  0  0  0
  6 17  1  0  0  0  0
  7 20  2  0  0  0  0
  7 22  1  0  0  0  0
  8 17  2  0  0  0  0
  8 24  1  0  0  0  0
  9 30  1  0  0  0  0
  9 31  1  0  0  0  0
  9 32  1  0  0  0  0
 10 15  1  0  0  0  0
 10 16  1  0  0  0  0
 10 33  1  0  0  0  0
 11 37  1  0  0  0  0
 11 36  1  0  0  0  0
 11 13  1  0  0  0  0
 12 14  1  0  0  0  0
 12 34  1  0  0  0  0
 12 35  1  0  0  0  0
 13 40  1  0  0  0  0
 13 41  1  0  0  0  0
 14 38  1  0  0  0  0
 14 39  1  0  0  0  0
 15 45  1  0  0  0  0
 15 44  1  0  0  0  0
 15 16  1  0  0  0  0
 16 42  1  0  0  0  0
 16 43  1  0  0  0  0
 18 20  1  0  0  0  0
 19 22  1  0  0  0  0
 20 23  1  0  0  0  0
 21 25  2  0  0  0  0
 21 26  1  0  0  0  0
 22 24  2  0  0  0  0
 23 27  2  0  0  0  0
 23 28  1  0  0  0  0
 24 46  1  0  0  0  0
 25 27  1  0  0  0  0
 25 47  1  0  0  0  0
 26 48  1  0  0  0  0
 26 28  2  0  0  0  0
 27 49  1  0  0  0  0
 28 50  1  0  0  0  0
M  END
$$$$
3235325
  MOE2005           2D

 46 49  0  0  0  0  0  0  0  0999 V2000
    2.8660    3.5670    0.0000 S   0  0  0  0  0  0  0  0  0  0  0  0
    2.3660    2.7010    0.0000 O   0  0  0  0  0  0  0  0  0  0  0  0
    3.3660    4.4330    0.0000 O   0  0  0  0  0  0  0  0  0  0  0  0
    3.7320    3.0670    0.0000 N   0  0  0  0  0  0  0  0  0  0  0  0
    6.3300   -2.4330    0.0000 N   0  0  0  0  0  0  0  0  0  0  0  0
    5.4640   -0.9330    0.0000 N   0  0  0  0  0  0  0  0  0  0  0  0
    6.3300    0.5670    0.0000 N   0  0  0  0  0  0  0  0  0  0  0  0
    2.0000    4.0670    0.0000 C   0  0  0  0  0  0  0  0  0  0  0  0
    5.4640    0.0670    0.0000 C   0  0  0  0  0  0  0  0  0  0  0  0
    6.3300   -1.4330    0.0000 C   0  0  0  0  0  0  0  0  0  0  0  0
    3.7320    2.0670    0.0000 C   0  0  0  0  0  0  0  0  0  0  0  0
    5.4640   -2.9330    0.0000 C   0  0  0  0  0  0  0  0  0  0  0  0
    7.1960    0.0670    0.0000 C   0  0  0  0  0  0  0  0  0  0  0  0
    4.5980    0.5670    0.0000 C   0  0  0  0  0  0  0  0  0  0  0  0
    7.1960   -0.9330    0.0000 C   0  0  0  0  0  0  0  0  0  0  0  0
    4.5980    1.5670    0.0000 C   0  0  0  0  0  0  0  0  0  0  0  0
    2.8660    1.5670    0.0000 C   0  0  0  0  0  0  0  0  0  0  0  0
    4.5980   -2.4330    0.0000 C   0  0  0  0  0  0  0  0  0  0  0  0
    5.4640   -3.9330    0.0000 C   0  0  0  0  0  0  0  0  0  0  0  0
    8.0900    0.6020    0.0000 C   0  0  0  0  0  0  0  0  0  0  0  0
    3.7320    0.0670    0.0000 C   0  0  0  0  0  0  0  0  0  0  0  0
    8.0900   -1.4680    0.0000 C   0  0  0  0  0  0  0  0  0  0  0  0
    2.8660    0.5670    0.0000 C   0  0  0  0  0  0  0  0  0  0  0  0
    3.7320   -2.9330    0.0000 C   0  0  0  0  0  0  0  0  0  0  0  0
    4.5980   -4.4330    0.0000 C   0  0  0  0  0  0  0  0  0  0  0  0
    8.9960    0.0880    0.0000 C   0  0  0  0  0  0  0  0  0  0  0  0
    8.9960   -0.9540    0.0000 C   0  0  0  0  0  0  0  0  0  0  0  0
    3.7320   -3.9330    0.0000 C   0  0  0  0  0  0  0  0  0  0  0  0
    4.2690    3.3770    0.0000 H   0  0  0  0  0  0  0  0  0  0  0  0
    6.8670   -2.7430    0.0000 H   0  0  0  0  0  0  0  0  0  0  0  0
    2.3100    4.6040    0.0000 H   0  0  0  0  0  0  0  0  0  0  0  0
    1.6900    3.5300    0.0000 H   0  0  0  0  0  0  0  0  0  0  0  0
    1.4630    4.3770    0.0000 H   0  0  0  0  0  0  0  0  0  0  0  0
    5.1350    1.8770    0.0000 H   0  0  0  0  0  0  0  0  0  0  0  0
    2.3290    1.8770    0.0000 H   0  0  0  0  0  0  0  0  0  0  0  0
    6.0010   -4.2430    0.0000 H   0  0  0  0  0  0  0  0  0  0  0  0
    4.5980   -1.8130    0.0000 H   0  0  0  0  0  0  0  0  0  0  0  0
    8.0830    1.2220    0.0000 H   0  0  0  0  0  0  0  0  0  0  0  0
    3.7320   -0.5530    0.0000 H   0  0  0  0  0  0  0  0  0  0  0  0
    8.0830   -2.0880    0.0000 H   0  0  0  0  0  0  0  0  0  0  0  0
    2.3290    0.2570    0.0000 H   0  0  0  0  0  0  0  0  0  0  0  0
    4.5980   -5.0530    0.0000 H   0  0  0  0  0  0  0  0  0  0  0  0
    3.1950   -2.6230    0.0000 H   0  0  0  0  0  0  0  0  0  0  0  0
    9.5320    0.4000    0.0000 H   0  0  0  0  0  0  0  0  0  0  0  0
    9.5320   -1.2660    0.0000 H   0  0  0  0  0  0  0  0  0  0  0  0
    3.1950   -4.2430    0.0000 H   0  0  0  0  0  0  0  0  0  0  0  0
  1  2  2  0  0  0  0
  1  3  2  0  0  0  0
  1  4  1  0  0  0  0
  1  8  1  0  0  0  0
  4 11  1  0  0  0  0
  4 29  1  0  0  0  0
  5 10  1  0  0  0  0
  5 12  1  0  0  0  0
  5 30  1  0  0  0  0
  6  9  1  0  0  0  0
  6 10  2  0  0  0  0
  7  9  2  0  0  0  0
  7 13  1  0  0  0  0
  8 31  1  0  0  0  0
  8 32  1  0  0  0  0
  8 33  1  0  0  0  0
  9 14  1  0  0  0  0
 10 15  1  0  0  0  0
 11 16  2  0  0  0  0
 11 17  1  0  0  0  0
 12 18  2  0  0  0  0
 12 19  1  0  0  0  0
 13 15  2  0  0  0  0
 13 20  1  0  0  0  0
 14 16  1  0  0  0  0
 14 21  2  0  0  0  0
 15 22  1  0  0  0  0
 16 34  1  0  0  0  0
 17 35  1  0  0  0  0
 17 23  2  0  0  0  0
 18 24  1  0  0  0  0
 18 37  1  0  0  0  0
 19 36  1  0  0  0  0
 19 25  2  0  0  0  0
 20 38  1  0  0  0  0
 20 26  2  0  0  0  0
 21 23  1  0  0  0  0
 21 39  1  0  0  0  0
 22 27  2  0  0  0  0
 22 40  1  0  0  0  0
 23 41  1  0  0  0  0
 24 28  2  0  0  0  0
 24 43  1  0  0  0  0
 25 28  1  0  0  0  0
 25 42  1  0  0  0  0
 26 27  1  0  0  0  0
 26 44  1  0  0  0  0
 27 45  1  0  0  0  0
 28 46  1  0  0  0  0
M  END
$$$$
3235334
  MOE2005           2D

 51 54  0  0  0  0  0  0  0  0999 V2000
   11.5880   -1.7810    0.0000 O   0  0  0  0  0  0  0  0  0  0  0  0
    4.5980   -0.7500    0.0000 O   0  0  0  0  0  0  0  0  0  0  0  0
    9.8600   -0.7740    0.0000 N   0  0  0  0  0  0  0  0  0  0  0  0
    6.3300   -0.7500    0.0000 N   0  0  0  0  0  0  0  0  0  0  0  0
    8.0900   -0.7850    0.0000 N   0  0  0  0  0  0  0  0  0  0  0  0
    6.3300    1.2500    0.0000 N   0  0  0  0  0  0  0  0  0  0  0  0
    8.9960    0.7710    0.0000 N   0  0  0  0  0  0  0  0  0  0  0  0
    5.4640   -4.2500    0.0000 N   0  0  0  0  0  0  0  0  0  0  0  0
    6.3300   -1.7500    0.0000 C   0  0  0  0  0  0  0  0  0  0  0  0
    4.5980    1.2500    0.0000 C   0  0  0  0  0  0  0  0  0  0  0  0
    4.5980    2.2500    0.0000 C   0  0  0  0  0  0  0  0  0  0  0  0
    5.4640   -2.2500    0.0000 C   0  0  0  0  0  0  0  0  0  0  0  0
   10.7210   -2.2780    0.0000 C   0  0  0  0  0  0  0  0  0  0  0  0
   11.5920   -0.7810    0.0000 C   0  0  0  0  0  0  0  0  0  0  0  0
   10.7280   -0.2780    0.0000 C   0  0  0  0  0  0  0  0  0  0  0  0
    9.8560   -1.7740    0.0000 C   0  0  0  0  0  0  0  0  0  0  0  0
    8.9960   -0.2710    0.0000 C   0  0  0  0  0  0  0  0  0  0  0  0
    5.4640   -0.2500    0.0000 C   0  0  0  0  0  0  0  0  0  0  0  0
    7.1960   -0.2500    0.0000 C   0  0  0  0  0  0  0  0  0  0  0  0
    5.4640    0.7500    0.0000 C   0  0  0  0  0  0  0  0  0  0  0  0
    7.1960    0.7500    0.0000 C   0  0  0  0  0  0  0  0  0  0  0  0
    3.7320    2.7500    0.0000 C   0  0  0  0  0  0  0  0  0  0  0  0
    8.0900    1.2850    0.0000 C   0  0  0  0  0  0  0  0  0  0  0  0
    2.8660    2.2500    0.0000 C   0  0  0  0  0  0  0  0  0  0  0  0
    3.7320    3.7500    0.0000 C   0  0  0  0  0  0  0  0  0  0  0  0
    2.0000    2.7500    0.0000 C   0  0  0  0  0  0  0  0  0  0  0  0
    2.8660    4.2500    0.0000 C   0  0  0  0  0  0  0  0  0  0  0  0
    2.0000    3.7500    0.0000 C   0  0  0  0  0  0  0  0  0  0  0  0
    5.4640   -3.2500    0.0000 C   0  0  0  0  0  0  0  0  0  0  0  0
    6.9410   -1.6420    0.0000 H   0  0  0  0  0  0  0  0  0  0  0  0
    6.5420   -2.3330    0.0000 H   0  0  0  0  0  0  0  0  0  0  0  0
    4.3860    0.6670    0.0000 H   0  0  0  0  0  0  0  0  0  0  0  0
    3.9880    1.3580    0.0000 H   0  0  0  0  0  0  0  0  0  0  0  0
    4.8100    2.8330    0.0000 H   0  0  0  0  0  0  0  0  0  0  0  0
    5.2090    2.1420    0.0000 H   0  0  0  0  0  0  0  0  0  0  0  0
    4.8540   -2.3580    0.0000 H   0  0  0  0  0  0  0  0  0  0  0  0
    5.2520   -1.6670    0.0000 H   0  0  0  0  0  0  0  0  0  0  0  0
   11.8070   -0.1990    0.0000 H   0  0  0  0  0  0  0  0  0  0  0  0
   12.2030   -0.8910    0.0000 H   0  0  0  0  0  0  0  0  0  0  0  0
   11.1170   -2.7540    0.0000 H   0  0  0  0  0  0  0  0  0  0  0  0
   10.3200   -2.7510    0.0000 H   0  0  0  0  0  0  0  0  0  0  0  0
   10.3320    0.1990    0.0000 H   0  0  0  0  0  0  0  0  0  0  0  0
   11.1290    0.1960    0.0000 H   0  0  0  0  0  0  0  0  0  0  0  0
    9.6420   -2.3560    0.0000 H   0  0  0  0  0  0  0  0  0  0  0  0
    9.2460   -1.6640    0.0000 H   0  0  0  0  0  0  0  0  0  0  0  0
    8.0830    1.9050    0.0000 H   0  0  0  0  0  0  0  0  0  0  0  0
    2.8660    1.6300    0.0000 H   0  0  0  0  0  0  0  0  0  0  0  0
    4.2690    4.0600    0.0000 H   0  0  0  0  0  0  0  0  0  0  0  0
    2.8660    4.8700    0.0000 H   0  0  0  0  0  0  0  0  0  0  0  0
    1.4630    2.4400    0.0000 H   0  0  0  0  0  0  0  0  0  0  0  0
    1.4630    4.0600    0.0000 H   0  0  0  0  0  0  0  0  0  0  0  0
  1 13  1  0  0  0  0
  1 14  1  0  0  0  0
  2 18  2  0  0  0  0
  3 16  1  0  0  0  0
  3 17  1  0  0  0  0
  3 15  1  0  0  0  0
  4 19  1  0  0  0  0
  4  9  1  0  0  0  0
  4 18  1  0  0  0  0
  5 17  2  0  0  0  0
  5 19  1  0  0  0  0
  6 21  1  0  0  0  0
  6 20  2  0  0  0  0
  7 17  1  0  0  0  0
  7 23  2  0  0  0  0
  8 29  3  0  0  0  0
  9 12  1  0  0  0  0
  9 30  1  0  0  0  0
  9 31  1  0  0  0  0
 10 20  1  0  0  0  0
 10 33  1  0  0  0  0
 10 32  1  0  0  0  0
 10 11  1  0  0  0  0
 11 22  1  0  0  0  0
 11 34  1  0  0  0  0
 11 35  1  0  0  0  0
 12 29  1  0  0  0  0
 12 36  1  0  0  0  0
 12 37  1  0  0  0  0
 13 41  1  0  0  0  0
 13 40  1  0  0  0  0
 13 16  1  0  0  0  0
 14 38  1  0  0  0  0
 14 39  1  0  0  0  0
 14 15  1  0  0  0  0
 15 42  1  0  0  0  0
 15 43  1  0  0  0  0
 16 44  1  0  0  0  0
 16 45  1  0  0  0  0
 18 20  1  0  0  0  0
 19 21  2  0  0  0  0
 21 23  1  0  0  0  0
 22 24  2  0  0  0  0
 22 25  1  0  0  0  0
 23 46  1  0  0  0  0
 24 26  1  0  0  0  0
 24 47  1  0  0  0  0
 25 48  1  0  0  0  0
 25 27  2  0  0  0  0
 26 28  2  0  0  0  0
 26 50  1  0  0  0  0
 27 28  1  0  0  0  0
 27 49  1  0  0  0  0
 28 51  1  0  0  0  0
M  END
$$$$
3235336
  MOE2005           2D

 54 57  0  0  0  0  0  0  0  0999 V2000
    3.7320   -5.0000    0.0000 O   0  0  0  0  0  0  0  0  0  0  0  0
    2.8660   -3.5000    0.0000 N   0  0  0  0  0  0  0  0  0  0  0  0
    2.8660    0.5000    0.0000 N   0  0  0  0  0  0  0  0  0  0  0  0
    2.0000   -5.0000    0.0000 C   0  0  0  0  0  0  0  0  0  0  0  0
    2.8660   -1.5000    0.0000 C   0  0  0  0  0  0  0  0  0  0  0  0
    2.0000   -3.0000    0.0000 C   0  0  0  0  0  0  0  0  0  0  0  0
    3.7320   -3.0000    0.0000 C   0  0  0  0  0  0  0  0  0  0  0  0
    3.7320    0.0000    0.0000 C   0  0  0  0  0  0  0  0  0  0  0  0
    2.0000    0.0000    0.0000 C   0  0  0  0  0  0  0  0  0  0  0  0
    2.0000   -2.0000    0.0000 C   0  0  0  0  0  0  0  0  0  0  0  0
    3.7320   -2.0000    0.0000 C   0  0  0  0  0  0  0  0  0  0  0  0
    3.7320   -1.0000    0.0000 C   0  0  0  0  0  0  0  0  0  0  0  0
    2.0000   -1.0000    0.0000 C   0  0  0  0  0  0  0  0  0  0  0  0
    2.8660   -4.5000    0.0000 C   0  0  0  0  0  0  0  0  0  0  0  0
    2.8660    1.5000    0.0000 C   0  0  0  0  0  0  0  0  0  0  0  0
    3.7320    3.0000    0.0000 C   0  0  0  0  0  0  0  0  0  0  0  0
    4.5980    3.5000    0.0000 C   0  0  0  0  0  0  0  0  0  0  0  0
    3.7320    2.0000    0.0000 C   0  0  0  0  0  0  0  0  0  0  0  0
    2.0000    2.0000    0.0000 C   0  0  0  0  0  0  0  0  0  0  0  0
    2.8660    3.5000    0.0000 C   0  0  0  0  0  0  0  0  0  0  0  0
    5.4640    3.0000    0.0000 C   0  0  0  0  0  0  0  0  0  0  0  0
    4.5980    4.5000    0.0000 C   0  0  0  0  0  0  0  0  0  0  0  0
    2.0000    3.0000    0.0000 C   0  0  0  0  0  0  0  0  0  0  0  0
    6.3300    3.5000    0.0000 C   0  0  0  0  0  0  0  0  0  0  0  0
    5.4640    5.0000    0.0000 C   0  0  0  0  0  0  0  0  0  0  0  0
    6.3300    4.5000    0.0000 C   0  0  0  0  0  0  0  0  0  0  0  0
    2.3100   -5.5370    0.0000 H   0  0  0  0  0  0  0  0  0  0  0  0
    1.4630   -5.3100    0.0000 H   0  0  0  0  0  0  0  0  0  0  0  0
    1.6900   -4.4630    0.0000 H   0  0  0  0  0  0  0  0  0  0  0  0
    1.7880   -3.5830    0.0000 H   0  0  0  0  0  0  0  0  0  0  0  0
    1.3890   -2.8920    0.0000 H   0  0  0  0  0  0  0  0  0  0  0  0
    4.3430   -2.8920    0.0000 H   0  0  0  0  0  0  0  0  0  0  0  0
    3.9440   -3.5830    0.0000 H   0  0  0  0  0  0  0  0  0  0  0  0
    3.9440    0.5830    0.0000 H   0  0  0  0  0  0  0  0  0  0  0  0
    4.3430   -0.1080    0.0000 H   0  0  0  0  0  0  0  0  0  0  0  0
    1.7880    0.5830    0.0000 H   0  0  0  0  0  0  0  0  0  0  0  0
    1.3890   -0.1080    0.0000 H   0  0  0  0  0  0  0  0  0  0  0  0
    4.3430   -2.1080    0.0000 H   0  0  0  0  0  0  0  0  0  0  0  0
    3.9440   -1.4170    0.0000 H   0  0  0  0  0  0  0  0  0  0  0  0
    1.7880   -1.4170    0.0000 H   0  0  0  0  0  0  0  0  0  0  0  0
    1.3890   -2.1080    0.0000 H   0  0  0  0  0  0  0  0  0  0  0  0
    1.3890   -0.8920    0.0000 H   0  0  0  0  0  0  0  0  0  0  0  0
    1.7880   -1.5830    0.0000 H   0  0  0  0  0  0  0  0  0  0  0  0
    3.9440   -1.5830    0.0000 H   0  0  0  0  0  0  0  0  0  0  0  0
    4.3430   -0.8920    0.0000 H   0  0  0  0  0  0  0  0  0  0  0  0
    4.2690    1.6900    0.0000 H   0  0  0  0  0  0  0  0  0  0  0  0
    1.4630    1.6900    0.0000 H   0  0  0  0  0  0  0  0  0  0  0  0
    2.8660    4.1200    0.0000 H   0  0  0  0  0  0  0  0  0  0  0  0
    5.4640    2.3800    0.0000 H   0  0  0  0  0  0  0  0  0  0  0  0
    4.0610    4.8100    0.0000 H   0  0  0  0  0  0  0  0  0  0  0  0
    1.4630    3.3100    0.0000 H   0  0  0  0  0  0  0  0  0  0  0  0
    6.8670    3.1900    0.0000 H   0  0  0  0  0  0  0  0  0  0  0  0
    5.4640    5.6200    0.0000 H   0  0  0  0  0  0  0  0  0  0  0  0
    6.8670    4.8100    0.0000 H   0  0  0  0  0  0  0  0  0  0  0  0
  1 14  2  0  0  0  0
  2 14  1  0  0  0  0
  2  7  1  0  0  0  0
  2  6  1  0  0  0  0
  3  9  1  0  0  0  0
  3 15  1  0  0  0  0
  3  8  1  0  0  0  0
  4 14  1  0  0  0  0
  4 27  1  0  0  0  0
  4 28  1  0  0  0  0
  4 29  1  0  0  0  0
  5 11  1  0  0  0  0
  5 13  1  0  0  0  0
  5 12  1  0  0  0  0
  5 10  1  0  0  0  0
  6 31  1  0  0  0  0
  6 30  1  0  0  0  0
  6 10  1  0  0  0  0
  7 11  1  0  0  0  0
  7 32  1  0  0  0  0
  7 33  1  0  0  0  0
  8 34  1  0  0  0  0
  8 35  1  0  0  0  0
  8 12  1  0  0  0  0
  9 13  1  0  0  0  0
  9 37  1  0  0  0  0
  9 36  1  0  0  0  0
 10 40  1  0  0  0  0
 10 41  1  0  0  0  0
 11 38  1  0  0  0  0
 11 39  1  0  0  0  0
 12 44  1  0  0  0  0
 12 45  1  0  0  0  0
 13 42  1  0  0  0  0
 13 43  1  0  0  0  0
 15 18  2  0  0  0  0
 15 19  1  0  0  0  0
 16 18  1  0  0  0  0
 16 20  2  0  0  0  0
 16 17  1  0  0  0  0
 17 21  2  0  0  0  0
 17 22  1  0  0  0  0
 18 46  1  0  0  0  0
 19 47  1  0  0  0  0
 19 23  2  0  0  0  0
 20 23  1  0  0  0  0
 20 48  1  0  0  0  0
 21 24  1  0  0  0  0
 21 49  1  0  0  0  0
 22 50  1  0  0  0  0
 22 25  2  0  0  0  0
 23 51  1  0  0  0  0
 24 26  2  0  0  0  0
 24 52  1  0  0  0  0
 25 26  1  0  0  0  0
 25 53  1  0  0  0  0
 26 54  1  0  0  0  0
M  END
$$$$
3235356
  MOE2005           2D

 59 64  0  0  0  0  0  0  0  0999 V2000
    5.6260   -3.2000    0.0000 S   0  0  0  0  0  0  0  0  0  0  0  0
    4.8650   -0.7050    0.0000 O   0  0  0  0  0  0  0  0  0  0  0  0
   11.8550   -1.7360    0.0000 N   0  0  0  0  0  0  0  0  0  0  0  0
   10.1270   -0.7290    0.0000 N   0  0  0  0  0  0  0  0  0  0  0  0
    6.5970   -0.7050    0.0000 N   0  0  0  0  0  0  0  0  0  0  0  0
    3.7900    2.4930    0.0000 N   0  0  0  0  0  0  0  0  0  0  0  0
    8.3570   -0.7400    0.0000 N   0  0  0  0  0  0  0  0  0  0  0  0
    6.5970    1.2950    0.0000 N   0  0  0  0  0  0  0  0  0  0  0  0
    9.2630    0.8160    0.0000 N   0  0  0  0  0  0  0  0  0  0  0  0
    6.5970   -1.7050    0.0000 C   0  0  0  0  0  0  0  0  0  0  0  0
   12.7190   -2.2390    0.0000 C   0  0  0  0  0  0  0  0  0  0  0  0
    3.3860    3.4080    0.0000 C   0  0  0  0  0  0  0  0  0  0  0  0
   11.8590   -0.7360    0.0000 C   0  0  0  0  0  0  0  0  0  0  0  0
   10.9870   -2.2330    0.0000 C   0  0  0  0  0  0  0  0  0  0  0  0
   10.9950   -0.2330    0.0000 C   0  0  0  0  0  0  0  0  0  0  0  0
   10.1230   -1.7290    0.0000 C   0  0  0  0  0  0  0  0  0  0  0  0
    9.2630   -0.2260    0.0000 C   0  0  0  0  0  0  0  0  0  0  0  0
    5.7310   -0.2050    0.0000 C   0  0  0  0  0  0  0  0  0  0  0  0
    7.4630   -0.2050    0.0000 C   0  0  0  0  0  0  0  0  0  0  0  0
    5.7310   -2.2050    0.0000 C   0  0  0  0  0  0  0  0  0  0  0  0
    5.7310    0.7950    0.0000 C   0  0  0  0  0  0  0  0  0  0  0  0
    3.2890    1.6340    0.0000 C   0  0  0  0  0  0  0  0  0  0  0  0
    7.4630    0.7950    0.0000 C   0  0  0  0  0  0  0  0  0  0  0  0
    4.8650    1.2950    0.0000 C   0  0  0  0  0  0  0  0  0  0  0  0
    3.9570    0.8900    0.0000 C   0  0  0  0  0  0  0  0  0  0  0  0
    4.6480   -3.4080    0.0000 C   0  0  0  0  0  0  0  0  0  0  0  0
    4.7620    2.2840    0.0000 C   0  0  0  0  0  0  0  0  0  0  0  0
    8.3570    1.3290    0.0000 C   0  0  0  0  0  0  0  0  0  0  0  0
    4.8170   -1.7990    0.0000 C   0  0  0  0  0  0  0  0  0  0  0  0
    2.3110    1.4280    0.0000 C   0  0  0  0  0  0  0  0  0  0  0  0
    3.6460   -0.0610    0.0000 C   0  0  0  0  0  0  0  0  0  0  0  0
    4.1480   -2.5420    0.0000 C   0  0  0  0  0  0  0  0  0  0  0  0
    2.0000    0.4770    0.0000 C   0  0  0  0  0  0  0  0  0  0  0  0
    2.6680   -0.2670    0.0000 C   0  0  0  0  0  0  0  0  0  0  0  0
    7.2070   -1.5980    0.0000 H   0  0  0  0  0  0  0  0  0  0  0  0
    6.8090   -2.2880    0.0000 H   0  0  0  0  0  0  0  0  0  0  0  0
   12.4070   -2.7750    0.0000 H   0  0  0  0  0  0  0  0  0  0  0  0
   13.2550   -2.5510    0.0000 H   0  0  0  0  0  0  0  0  0  0  0  0
   13.0310   -1.7040    0.0000 H   0  0  0  0  0  0  0  0  0  0  0  0
    3.9540    3.6580    0.0000 H   0  0  0  0  0  0  0  0  0  0  0  0
    3.1360    3.9750    0.0000 H   0  0  0  0  0  0  0  0  0  0  0  0
    2.8190    3.1570    0.0000 H   0  0  0  0  0  0  0  0  0  0  0  0
   11.3840   -2.7090    0.0000 H   0  0  0  0  0  0  0  0  0  0  0  0
   10.5870   -2.7060    0.0000 H   0  0  0  0  0  0  0  0  0  0  0  0
   12.0730   -0.1540    0.0000 H   0  0  0  0  0  0  0  0  0  0  0  0
   12.4690   -0.8460    0.0000 H   0  0  0  0  0  0  0  0  0  0  0  0
   11.3950    0.2410    0.0000 H   0  0  0  0  0  0  0  0  0  0  0  0
   10.5980    0.2440    0.0000 H   0  0  0  0  0  0  0  0  0  0  0  0
    9.5130   -1.6190    0.0000 H   0  0  0  0  0  0  0  0  0  0  0  0
    9.9090   -2.3110    0.0000 H   0  0  0  0  0  0  0  0  0  0  0  0
    4.3960   -3.9740    0.0000 H   0  0  0  0  0  0  0  0  0  0  0  0
    5.2230    2.6980    0.0000 H   0  0  0  0  0  0  0  0  0  0  0  0
    8.3500    1.9490    0.0000 H   0  0  0  0  0  0  0  0  0  0  0  0
    4.6880   -1.1920    0.0000 H   0  0  0  0  0  0  0  0  0  0  0  0
    1.8970    1.8890    0.0000 H   0  0  0  0  0  0  0  0  0  0  0  0
    4.0600   -0.5220    0.0000 H   0  0  0  0  0  0  0  0  0  0  0  0
    3.5320   -2.4770    0.0000 H   0  0  0  0  0  0  0  0  0  0  0  0
    1.3930    0.3490    0.0000 H   0  0  0  0  0  0  0  0  0  0  0  0
    2.4750   -0.8560    0.0000 H   0  0  0  0  0  0  0  0  0  0  0  0
  1 20  1  0  0  0  0
  1 26  1  0  0  0  0
  2 18  2  0  0  0  0
  3 14  1  0  0  0  0
  3 13  1  0  0  0  0
  3 11  1  0  0  0  0
  4 17  1  0  0  0  0
  4 16  1  0  0  0  0
  4 15  1  0  0  0  0
  5 10  1  0  0  0  0
  5 18  1  0  0  0  0
  5 19  1  0  0  0  0
  6 22  1  0  0  0  0
  6 12  1  0  0  0  0
  6 27  1  0  0  0  0
  7 17  1  0  0  0  0
  7 19  2  0  0  0  0
  8 21  2  0  0  0  0
  8 23  1  0  0  0  0
  9 28  1  0  0  0  0
  9 17  2  0  0  0  0
 10 20  1  0  0  0  0
 10 35  1  0  0  0  0
 10 36  1  0  0  0  0
 11 37  1  0  0  0  0
 11 38  1  0  0  0  0
 11 39  1  0  0  0  0
 12 40  1  0  0  0  0
 12 41  1  0  0  0  0
 12 42  1  0  0  0  0
 13 46  1  0  0  0  0
 13 45  1  0  0  0  0
 13 15  1  0  0  0  0
 14 16  1  0  0  0  0
 14 43  1  0  0  0  0
 14 44  1  0  0  0  0
 15 47  1  0  0  0  0
 15 48  1  0  0  0  0
 16 49  1  0  0  0  0
 16 50  1  0  0  0  0
 18 21  1  0  0  0  0
 19 23  1  0  0  0  0
 20 29  2  0  0  0  0
 21 24  1  0  0  0  0
 22 25  2  0  0  0  0
 22 30  1  0  0  0  0
 23 28  2  0  0  0  0
 24 25  1  0  0  0  0
 24 27  2  0  0  0  0
 25 31  1  0  0  0  0
 26 51  1  0  0  0  0
 26 32  2  0  0  0  0
 27 52  1  0  0  0  0
 28 53  1  0  0  0  0
 29 32  1  0  0  0  0
 29 54  1  0  0  0  0
 30 33  2  0  0  0  0
 30 55  1  0  0  0  0
 31 34  2  0  0  0  0
 31 56  1  0  0  0  0
 32 57  1  0  0  0  0
 33 34  1  0  0  0  0
 33 58  1  0  0  0  0
 34 59  1  0  0  0  0
M  END
$$$$
3235360
  MOE2005           2D

 43 46  0  0  0  0  0  0  0  0999 V2000
    2.0000    3.2500    0.0000 Cl  0  0  0  0  0  0  0  0  0  0  0  0
    4.5980   -0.2500    0.0000 O   0  0  0  0  0  0  0  0  0  0  0  0
    9.8600   -0.2740    0.0000 N   0  0  0  0  0  0  0  0  0  0  0  0
    6.3300   -0.2500    0.0000 N   0  0  0  0  0  0  0  0  0  0  0  0
    8.0900   -0.2850    0.0000 N   0  0  0  0  0  0  0  0  0  0  0  0
    6.3300    1.7500    0.0000 N   0  0  0  0  0  0  0  0  0  0  0  0
    8.9960    1.2710    0.0000 N   0  0  0  0  0  0  0  0  0  0  0  0
   10.7280    0.2230    0.0000 C   0  0  0  0  0  0  0  0  0  0  0  0
   11.5920   -0.2810    0.0000 C   0  0  0  0  0  0  0  0  0  0  0  0
    8.9960    0.2290    0.0000 C   0  0  0  0  0  0  0  0  0  0  0  0
    5.4640    0.2500    0.0000 C   0  0  0  0  0  0  0  0  0  0  0  0
    7.1960    0.2500    0.0000 C   0  0  0  0  0  0  0  0  0  0  0  0
    5.4640    1.2500    0.0000 C   0  0  0  0  0  0  0  0  0  0  0  0
    2.8660    2.7500    0.0000 C   0  0  0  0  0  0  0  0  0  0  0  0
    6.3300   -1.2500    0.0000 C   0  0  0  0  0  0  0  0  0  0  0  0
    7.1960    1.2500    0.0000 C   0  0  0  0  0  0  0  0  0  0  0  0
    4.5980    1.7500    0.0000 C   0  0  0  0  0  0  0  0  0  0  0  0
    8.0900    1.7850    0.0000 C   0  0  0  0  0  0  0  0  0  0  0  0
    2.8660    1.7500    0.0000 C   0  0  0  0  0  0  0  0  0  0  0  0
    3.7320    3.2500    0.0000 C   0  0  0  0  0  0  0  0  0  0  0  0
    5.4640   -1.7500    0.0000 C   0  0  0  0  0  0  0  0  0  0  0  0
    7.1960   -1.7500    0.0000 C   0  0  0  0  0  0  0  0  0  0  0  0
    3.7320    1.2500    0.0000 C   0  0  0  0  0  0  0  0  0  0  0  0
    4.5980    2.7500    0.0000 C   0  0  0  0  0  0  0  0  0  0  0  0
    5.4640   -2.7500    0.0000 C   0  0  0  0  0  0  0  0  0  0  0  0
    7.1960   -2.7500    0.0000 C   0  0  0  0  0  0  0  0  0  0  0  0
    6.3300   -3.2500    0.0000 C   0  0  0  0  0  0  0  0  0  0  0  0
    9.8580   -0.8940    0.0000 H   0  0  0  0  0  0  0  0  0  0  0  0
   11.1290    0.6960    0.0000 H   0  0  0  0  0  0  0  0  0  0  0  0
   10.3320    0.6990    0.0000 H   0  0  0  0  0  0  0  0  0  0  0  0
   12.1280   -0.5930    0.0000 H   0  0  0  0  0  0  0  0  0  0  0  0
   11.9040    0.2550    0.0000 H   0  0  0  0  0  0  0  0  0  0  0  0
   11.2800   -0.8170    0.0000 H   0  0  0  0  0  0  0  0  0  0  0  0
    8.0830    2.4050    0.0000 H   0  0  0  0  0  0  0  0  0  0  0  0
    3.7320    3.8700    0.0000 H   0  0  0  0  0  0  0  0  0  0  0  0
    2.3290    1.4400    0.0000 H   0  0  0  0  0  0  0  0  0  0  0  0
    7.7330   -1.4400    0.0000 H   0  0  0  0  0  0  0  0  0  0  0  0
    4.9270   -1.4400    0.0000 H   0  0  0  0  0  0  0  0  0  0  0  0
    5.1350    3.0600    0.0000 H   0  0  0  0  0  0  0  0  0  0  0  0
    3.7320    0.6300    0.0000 H   0  0  0  0  0  0  0  0  0  0  0  0
    7.7330   -3.0600    0.0000 H   0  0  0  0  0  0  0  0  0  0  0  0
    4.9270   -3.0600    0.0000 H   0  0  0  0  0  0  0  0  0  0  0  0
    6.3300   -3.8700    0.0000 H   0  0  0  0  0  0  0  0  0  0  0  0
  1 14  1  0  0  0  0
  2 11  2  0  0  0  0
  3 10  1  0  0  0  0
  3 28  1  0  0  0  0
  3  8  1  0  0  0  0
  4 11  1  0  0  0  0
  4 12  1  0  0  0  0
  4 15  1  0  0  0  0
  5 12  2  0  0  0  0
  5 10  1  0  0  0  0
  6 13  2  0  0  0  0
  6 16  1  0  0  0  0
  7 10  2  0  0  0  0
  7 18  1  0  0  0  0
  8  9  1  0  0  0  0
  8 29  1  0  0  0  0
  8 30  1  0  0  0  0
  9 31  1  0  0  0  0
  9 32  1  0  0  0  0
  9 33  1  0  0  0  0
 11 13  1  0  0  0  0
 12 16  1  0  0  0  0
 13 17  1  0  0  0  0
 14 19  2  0  0  0  0
 14 20  1  0  0  0  0
 15 21  2  0  0  0  0
 15 22  1  0  0  0  0
 16 18  2  0  0  0  0
 17 23  2  0  0  0  0
 17 24  1  0  0  0  0
 18 34  1  0  0  0  0
 19 23  1  0  0  0  0
 19 36  1  0  0  0  0
 20 35  1  0  0  0  0
 20 24  2  0  0  0  0
 21 25  1  0  0  0  0
 21 38  1  0  0  0  0
 22 37  1  0  0  0  0
 22 26  2  0  0  0  0
 23 40  1  0  0  0  0
 24 39  1  0  0  0  0
 25 27  2  0  0  0  0
 25 42  1  0  0  0  0
 26 27  1  0  0  0  0
 26 41  1  0  0  0  0
 27 43  1  0  0  0  0
M  END
$$$$
3235363
  MOE2005           2D

 47 50  0  0  0  0  0  0  0  0999 V2000
    5.4640   -3.5000    0.0000 O   0  0  0  0  0  0  0  0  0  0  0  0
    3.7320    0.5000    0.0000 O   0  0  0  0  0  0  0  0  0  0  0  0
    8.9940    0.4760    0.0000 N   0  0  0  0  0  0  0  0  0  0  0  0
    5.4640    0.5000    0.0000 N   0  0  0  0  0  0  0  0  0  0  0  0
    7.2240    0.4650    0.0000 N   0  0  0  0  0  0  0  0  0  0  0  0
    5.4640    2.5000    0.0000 N   0  0  0  0  0  0  0  0  0  0  0  0
    8.1300    2.0210    0.0000 N   0  0  0  0  0  0  0  0  0  0  0  0
    9.8620    0.9730    0.0000 C   0  0  0  0  0  0  0  0  0  0  0  0
    4.5980   -4.0000    0.0000 C   0  0  0  0  0  0  0  0  0  0  0  0
   10.7260    0.4690    0.0000 C   0  0  0  0  0  0  0  0  0  0  0  0
    8.1300    0.9790    0.0000 C   0  0  0  0  0  0  0  0  0  0  0  0
    4.5980    1.0000    0.0000 C   0  0  0  0  0  0  0  0  0  0  0  0
    6.3300    1.0000    0.0000 C   0  0  0  0  0  0  0  0  0  0  0  0
    4.5980    2.0000    0.0000 C   0  0  0  0  0  0  0  0  0  0  0  0
    5.4640   -2.5000    0.0000 C   0  0  0  0  0  0  0  0  0  0  0  0
    5.4640   -0.5000    0.0000 C   0  0  0  0  0  0  0  0  0  0  0  0
    6.3300    2.0000    0.0000 C   0  0  0  0  0  0  0  0  0  0  0  0
    3.7320    2.5000    0.0000 C   0  0  0  0  0  0  0  0  0  0  0  0
    7.2240    2.5350    0.0000 C   0  0  0  0  0  0  0  0  0  0  0  0
    6.3300   -2.0000    0.0000 C   0  0  0  0  0  0  0  0  0  0  0  0
    4.5980   -2.0000    0.0000 C   0  0  0  0  0  0  0  0  0  0  0  0
    6.3300   -1.0000    0.0000 C   0  0  0  0  0  0  0  0  0  0  0  0
    4.5980   -1.0000    0.0000 C   0  0  0  0  0  0  0  0  0  0  0  0
    3.7320    3.5000    0.0000 C   0  0  0  0  0  0  0  0  0  0  0  0
    2.8660    2.0000    0.0000 C   0  0  0  0  0  0  0  0  0  0  0  0
    2.8660    4.0000    0.0000 C   0  0  0  0  0  0  0  0  0  0  0  0
    2.0000    2.5000    0.0000 C   0  0  0  0  0  0  0  0  0  0  0  0
    2.0000    3.5000    0.0000 C   0  0  0  0  0  0  0  0  0  0  0  0
    8.9920   -0.1440    0.0000 H   0  0  0  0  0  0  0  0  0  0  0  0
    9.4660    1.4490    0.0000 H   0  0  0  0  0  0  0  0  0  0  0  0
   10.2630    1.4460    0.0000 H   0  0  0  0  0  0  0  0  0  0  0  0
    4.2880   -3.4630    0.0000 H   0  0  0  0  0  0  0  0  0  0  0  0
    4.0610   -4.3100    0.0000 H   0  0  0  0  0  0  0  0  0  0  0  0
    4.9080   -4.5370    0.0000 H   0  0  0  0  0  0  0  0  0  0  0  0
   10.4140   -0.0670    0.0000 H   0  0  0  0  0  0  0  0  0  0  0  0
   11.0380    1.0050    0.0000 H   0  0  0  0  0  0  0  0  0  0  0  0
   11.2620    0.1570    0.0000 H   0  0  0  0  0  0  0  0  0  0  0  0
    7.2170    3.1550    0.0000 H   0  0  0  0  0  0  0  0  0  0  0  0
    4.0610   -2.3100    0.0000 H   0  0  0  0  0  0  0  0  0  0  0  0
    6.8670   -2.3100    0.0000 H   0  0  0  0  0  0  0  0  0  0  0  0
    4.0610   -0.6900    0.0000 H   0  0  0  0  0  0  0  0  0  0  0  0
    6.8670   -0.6900    0.0000 H   0  0  0  0  0  0  0  0  0  0  0  0
    2.8660    1.3800    0.0000 H   0  0  0  0  0  0  0  0  0  0  0  0
    4.2690    3.8100    0.0000 H   0  0  0  0  0  0  0  0  0  0  0  0
    1.4630    2.1900    0.0000 H   0  0  0  0  0  0  0  0  0  0  0  0
    2.8660    4.6200    0.0000 H   0  0  0  0  0  0  0  0  0  0  0  0
    1.4630    3.8100    0.0000 H   0  0  0  0  0  0  0  0  0  0  0  0
  1  9  1  0  0  0  0
  1 15  1  0  0  0  0
  2 12  2  0  0  0  0
  3 11  1  0  0  0  0
  3 29  1  0  0  0  0
  3  8  1  0  0  0  0
  4 16  1  0  0  0  0
  4 13  1  0  0  0  0
  4 12  1  0  0  0  0
  5 13  2  0  0  0  0
  5 11  1  0  0  0  0
  6 17  1  0  0  0  0
  6 14  2  0  0  0  0
  7 11  2  0  0  0  0
  7 19  1  0  0  0  0
  8 10  1  0  0  0  0
  8 30  1  0  0  0  0
  8 31  1  0  0  0  0
  9 32  1  0  0  0  0
  9 33  1  0  0  0  0
  9 34  1  0  0  0  0
 10 35  1  0  0  0  0
 10 36  1  0  0  0  0
 10 37  1  0  0  0  0
 12 14  1  0  0  0  0
 13 17  1  0  0  0  0
 14 18  1  0  0  0  0
 15 20  2  0  0  0  0
 15 21  1  0  0  0  0
 16 22  2  0  0  0  0
 16 23  1  0  0  0  0
 17 19  2  0  0  0  0
 18 24  2  0  0  0  0
 18 25  1  0  0  0  0
 19 38  1  0  0  0  0
 20 22  1  0  0  0  0
 20 40  1  0  0  0  0
 21 39  1  0  0  0  0
 21 23  2  0  0  0  0
 22 42  1  0  0  0  0
 23 41  1  0  0  0  0
 24 26  1  0  0  0  0
 24 44  1  0  0  0  0
 25 43  1  0  0  0  0
 25 27  2  0  0  0  0
 26 28  2  0  0  0  0
 26 46  1  0  0  0  0
 27 28  1  0  0  0  0
 27 45  1  0  0  0  0
 28 47  1  0  0  0  0
M  END
$$$$
3235367
  MOE2005           2D

 53 57  0  0  0  0  0  0  0  0999 V2000
    4.8650   -0.3060    0.0000 O   0  0  0  0  0  0  0  0  0  0  0  0
   10.1270   -0.3310    0.0000 N   0  0  0  0  0  0  0  0  0  0  0  0
   11.8550   -1.3370    0.0000 N   0  0  0  0  0  0  0  0  0  0  0  0
    6.5970   -0.3060    0.0000 N   0  0  0  0  0  0  0  0  0  0  0  0
    3.7900    2.8920    0.0000 N   0  0  0  0  0  0  0  0  0  0  0  0
    8.3570   -0.3410    0.0000 N   0  0  0  0  0  0  0  0  0  0  0  0
    6.5970    1.6940    0.0000 N   0  0  0  0  0  0  0  0  0  0  0  0
    9.2630    1.2140    0.0000 N   0  0  0  0  0  0  0  0  0  0  0  0
    5.7310   -3.8060    0.0000 N   0  0  0  0  0  0  0  0  0  0  0  0
    6.5970   -1.3060    0.0000 C   0  0  0  0  0  0  0  0  0  0  0  0
    5.7310   -1.8060    0.0000 C   0  0  0  0  0  0  0  0  0  0  0  0
    3.3860    3.8060    0.0000 C   0  0  0  0  0  0  0  0  0  0  0  0
   10.1230   -1.3310    0.0000 C   0  0  0  0  0  0  0  0  0  0  0  0
   10.9950    0.1660    0.0000 C   0  0  0  0  0  0  0  0  0  0  0  0
   11.8590   -0.3370    0.0000 C   0  0  0  0  0  0  0  0  0  0  0  0
   10.9870   -1.8340    0.0000 C   0  0  0  0  0  0  0  0  0  0  0  0
    9.2630    0.1730    0.0000 C   0  0  0  0  0  0  0  0  0  0  0  0
    5.7310    0.1940    0.0000 C   0  0  0  0  0  0  0  0  0  0  0  0
    7.4630    0.1940    0.0000 C   0  0  0  0  0  0  0  0  0  0  0  0
    5.7310    1.1940    0.0000 C   0  0  0  0  0  0  0  0  0  0  0  0
    3.2890    2.0330    0.0000 C   0  0  0  0  0  0  0  0  0  0  0  0
    7.4630    1.1940    0.0000 C   0  0  0  0  0  0  0  0  0  0  0  0
    4.8650    1.6940    0.0000 C   0  0  0  0  0  0  0  0  0  0  0  0
    3.9570    1.2880    0.0000 C   0  0  0  0  0  0  0  0  0  0  0  0
    4.7620    2.6820    0.0000 C   0  0  0  0  0  0  0  0  0  0  0  0
    8.3570    1.7280    0.0000 C   0  0  0  0  0  0  0  0  0  0  0  0
    2.3110    1.8270    0.0000 C   0  0  0  0  0  0  0  0  0  0  0  0
    3.6460    0.3380    0.0000 C   0  0  0  0  0  0  0  0  0  0  0  0
    2.0000    0.8760    0.0000 C   0  0  0  0  0  0  0  0  0  0  0  0
    2.6680    0.1320    0.0000 C   0  0  0  0  0  0  0  0  0  0  0  0
    5.7310   -2.8060    0.0000 C   0  0  0  0  0  0  0  0  0  0  0  0
   12.3910   -1.6490    0.0000 H   0  0  0  0  0  0  0  0  0  0  0  0
    7.2070   -1.1990    0.0000 H   0  0  0  0  0  0  0  0  0  0  0  0
    6.8090   -1.8890    0.0000 H   0  0  0  0  0  0  0  0  0  0  0  0
    5.1200   -1.9140    0.0000 H   0  0  0  0  0  0  0  0  0  0  0  0
    5.5190   -1.2240    0.0000 H   0  0  0  0  0  0  0  0  0  0  0  0
    3.9540    4.0570    0.0000 H   0  0  0  0  0  0  0  0  0  0  0  0
    2.8190    3.5560    0.0000 H   0  0  0  0  0  0  0  0  0  0  0  0
    3.1360    4.3740    0.0000 H   0  0  0  0  0  0  0  0  0  0  0  0
   11.3950    0.6400    0.0000 H   0  0  0  0  0  0  0  0  0  0  0  0
   10.5980    0.6430    0.0000 H   0  0  0  0  0  0  0  0  0  0  0  0
    9.5130   -1.2210    0.0000 H   0  0  0  0  0  0  0  0  0  0  0  0
    9.9090   -1.9120    0.0000 H   0  0  0  0  0  0  0  0  0  0  0  0
   12.4690   -0.4470    0.0000 H   0  0  0  0  0  0  0  0  0  0  0  0
   12.0730    0.2450    0.0000 H   0  0  0  0  0  0  0  0  0  0  0  0
   10.5870   -2.3070    0.0000 H   0  0  0  0  0  0  0  0  0  0  0  0
   11.3840   -2.3100    0.0000 H   0  0  0  0  0  0  0  0  0  0  0  0
    5.2230    3.0960    0.0000 H   0  0  0  0  0  0  0  0  0  0  0  0
    8.3500    2.3480    0.0000 H   0  0  0  0  0  0  0  0  0  0  0  0
    1.8970    2.2880    0.0000 H   0  0  0  0  0  0  0  0  0  0  0  0
    4.0600   -0.1240    0.0000 H   0  0  0  0  0  0  0  0  0  0  0  0
    1.3930    0.7480    0.0000 H   0  0  0  0  0  0  0  0  0  0  0  0
    2.4750   -0.4580    0.0000 H   0  0  0  0  0  0  0  0  0  0  0  0
  1 18  2  0  0  0  0
  2 17  1  0  0  0  0
  2 14  1  0  0  0  0
  2 13  1  0  0  0  0
  3 15  1  0  0  0  0
  3 16  1  0  0  0  0
  3 32  1  0  0  0  0
  4 18  1  0  0  0  0
  4 19  1  0  0  0  0
  4 10  1  0  0  0  0
  5 21  1  0  0  0  0
  5 12  1  0  0  0  0
  5 25  1  0  0  0  0
  6 19  2  0  0  0  0
  6 17  1  0  0  0  0
  7 22  1  0  0  0  0
  7 20  2  0  0  0  0
  8 17  2  0  0  0  0
  8 26  1  0  0  0  0
  9 31  3  0  0  0  0
 10 11  1  0  0  0  0
 10 33  1  0  0  0  0
 10 34  1  0  0  0  0
 11 31  1  0  0  0  0
 11 35  1  0  0  0  0
 11 36  1  0  0  0  0
 12 37  1  0  0  0  0
 12 38  1  0  0  0  0
 12 39  1  0  0  0  0
 13 43  1  0  0  0  0
 13 42  1  0  0  0  0
 13 16  1  0  0  0  0
 14 15  1  0  0  0  0
 14 40  1  0  0  0  0
 14 41  1  0  0  0  0
 15 44  1  0  0  0  0
 15 45  1  0  0  0  0
 16 46  1  0  0  0  0
 16 47  1  0  0  0  0
 18 20  1  0  0  0  0
 19 22  1  0  0  0  0
 20 23  1  0  0  0  0
 21 24  2  0  0  0  0
 21 27  1  0  0  0  0
 22 26  2  0  0  0  0
 23 24  1  0  0  0  0
 23 25  2  0  0  0  0
 24 28  1  0  0  0  0
 25 48  1  0  0  0  0
 26 49  1  0  0  0  0
 27 29  2  0  0  0  0
 27 50  1  0  0  0  0
 28 30  2  0  0  0  0
 28 51  1  0  0  0  0
 29 30  1  0  0  0  0
 29 52  1  0  0  0  0
 30 53  1  0  0  0  0
M  END
$$$$
3235383
  MOE2005           2D

 53 57  0  0  0  0  0  0  0  0999 V2000
    2.0000    4.0000    0.0000 Cl  0  0  0  0  0  0  0  0  0  0  0  0
    6.3300   -3.5000    0.0000 O   0  0  0  0  0  0  0  0  0  0  0  0
    4.5980    0.5000    0.0000 O   0  0  0  0  0  0  0  0  0  0  0  0
    9.8600    0.4760    0.0000 N   0  0  0  0  0  0  0  0  0  0  0  0
   11.5880   -0.5310    0.0000 N   0  0  0  0  0  0  0  0  0  0  0  0
    6.3300    0.5000    0.0000 N   0  0  0  0  0  0  0  0  0  0  0  0
    8.0900    0.4650    0.0000 N   0  0  0  0  0  0  0  0  0  0  0  0
    6.3300    2.5000    0.0000 N   0  0  0  0  0  0  0  0  0  0  0  0
    8.9960    2.0210    0.0000 N   0  0  0  0  0  0  0  0  0  0  0  0
    5.4640   -4.0000    0.0000 C   0  0  0  0  0  0  0  0  0  0  0  0
   10.7280    0.9730    0.0000 C   0  0  0  0  0  0  0  0  0  0  0  0
    9.8560   -0.5240    0.0000 C   0  0  0  0  0  0  0  0  0  0  0  0
   11.5920    0.4690    0.0000 C   0  0  0  0  0  0  0  0  0  0  0  0
   10.7210   -1.0280    0.0000 C   0  0  0  0  0  0  0  0  0  0  0  0
    8.9960    0.9790    0.0000 C   0  0  0  0  0  0  0  0  0  0  0  0
    5.4640    1.0000    0.0000 C   0  0  0  0  0  0  0  0  0  0  0  0
    7.1960    1.0000    0.0000 C   0  0  0  0  0  0  0  0  0  0  0  0
    5.4640    2.0000    0.0000 C   0  0  0  0  0  0  0  0  0  0  0  0
    2.8660    3.5000    0.0000 C   0  0  0  0  0  0  0  0  0  0  0  0
    6.3300   -2.5000    0.0000 C   0  0  0  0  0  0  0  0  0  0  0  0
    6.3300   -0.5000    0.0000 C   0  0  0  0  0  0  0  0  0  0  0  0
    7.1960    2.0000    0.0000 C   0  0  0  0  0  0  0  0  0  0  0  0
    4.5980    2.5000    0.0000 C   0  0  0  0  0  0  0  0  0  0  0  0
    8.0900    2.5350    0.0000 C   0  0  0  0  0  0  0  0  0  0  0  0
    2.8660    2.5000    0.0000 C   0  0  0  0  0  0  0  0  0  0  0  0
    3.7320    4.0000    0.0000 C   0  0  0  0  0  0  0  0  0  0  0  0
    7.1960   -2.0000    0.0000 C   0  0  0  0  0  0  0  0  0  0  0  0
    5.4640   -2.0000    0.0000 C   0  0  0  0  0  0  0  0  0  0  0  0
    7.1960   -1.0000    0.0000 C   0  0  0  0  0  0  0  0  0  0  0  0
    5.4640   -1.0000    0.0000 C   0  0  0  0  0  0  0  0  0  0  0  0
    3.7320    2.0000    0.0000 C   0  0  0  0  0  0  0  0  0  0  0  0
    4.5980    3.5000    0.0000 C   0  0  0  0  0  0  0  0  0  0  0  0
   12.1240   -0.8430    0.0000 H   0  0  0  0  0  0  0  0  0  0  0  0
    5.1540   -3.4630    0.0000 H   0  0  0  0  0  0  0  0  0  0  0  0
    4.9270   -4.3100    0.0000 H   0  0  0  0  0  0  0  0  0  0  0  0
    5.7740   -4.5370    0.0000 H   0  0  0  0  0  0  0  0  0  0  0  0
    9.6420   -1.1060    0.0000 H   0  0  0  0  0  0  0  0  0  0  0  0
    9.2460   -0.4140    0.0000 H   0  0  0  0  0  0  0  0  0  0  0  0
   10.3320    1.4490    0.0000 H   0  0  0  0  0  0  0  0  0  0  0  0
   11.1290    1.4460    0.0000 H   0  0  0  0  0  0  0  0  0  0  0  0
   11.1170   -1.5040    0.0000 H   0  0  0  0  0  0  0  0  0  0  0  0
   10.3200   -1.5010    0.0000 H   0  0  0  0  0  0  0  0  0  0  0  0
   11.8070    1.0510    0.0000 H   0  0  0  0  0  0  0  0  0  0  0  0
   12.2030    0.3590    0.0000 H   0  0  0  0  0  0  0  0  0  0  0  0
    8.0830    3.1550    0.0000 H   0  0  0  0  0  0  0  0  0  0  0  0
    2.3290    2.1900    0.0000 H   0  0  0  0  0  0  0  0  0  0  0  0
    3.7320    4.6200    0.0000 H   0  0  0  0  0  0  0  0  0  0  0  0
    7.7330   -2.3100    0.0000 H   0  0  0  0  0  0  0  0  0  0  0  0
    4.9270   -2.3100    0.0000 H   0  0  0  0  0  0  0  0  0  0  0  0
    7.7330   -0.6900    0.0000 H   0  0  0  0  0  0  0  0  0  0  0  0
    4.9270   -0.6900    0.0000 H   0  0  0  0  0  0  0  0  0  0  0  0
    3.7320    1.3800    0.0000 H   0  0  0  0  0  0  0  0  0  0  0  0
    5.1350    3.8100    0.0000 H   0  0  0  0  0  0  0  0  0  0  0  0
  1 19  1  0  0  0  0
  2 20  1  0  0  0  0
  2 10  1  0  0  0  0
  3 16  2  0  0  0  0
  4 15  1  0  0  0  0
  4 12  1  0  0  0  0
  4 11  1  0  0  0  0
  5 14  1  0  0  0  0
  5 33  1  0  0  0  0
  5 13  1  0  0  0  0
  6 16  1  0  0  0  0
  6 17  1  0  0  0  0
  6 21  1  0  0  0  0
  7 17  2  0  0  0  0
  7 15  1  0  0  0  0
  8 18  2  0  0  0  0
  8 22  1  0  0  0  0
  9 15  2  0  0  0  0
  9 24  1  0  0  0  0
 10 34  1  0  0  0  0
 10 35  1  0  0  0  0
 10 36  1  0  0  0  0
 11 40  1  0  0  0  0
 11 39  1  0  0  0  0
 11 13  1  0  0  0  0
 12 14  1  0  0  0  0
 12 37  1  0  0  0  0
 12 38  1  0  0  0  0
 13 43  1  0  0  0  0
 13 44  1  0  0  0  0
 14 41  1  0  0  0  0
 14 42  1  0  0  0  0
 16 18  1  0  0  0  0
 17 22  1  0  0  0  0
 18 23  1  0  0  0  0
 19 25  2  0  0  0  0
 19 26  1  0  0  0  0
 20 27  2  0  0  0  0
 20 28  1  0  0  0  0
 21 29  2  0  0  0  0
 21 30  1  0  0  0  0
 22 24  2  0  0  0  0
 23 31  2  0  0  0  0
 23 32  1  0  0  0  0
 24 45  1  0  0  0  0
 25 31  1  0  0  0  0
 25 46  1  0  0  0  0
 26 47  1  0  0  0  0
 26 32  2  0  0  0  0
 27 29  1  0  0  0  0
 27 48  1  0  0  0  0
 28 49  1  0  0  0  0
 28 30  2  0  0  0  0
 29 50  1  0  0  0  0
 30 51  1  0  0  0  0
 31 52  1  0  0  0  0
 32 53  1  0  0  0  0
M  END
$$$$
3235388
  MOE2005           2D

 48 52  0  0  0  0  0  0  0  0999 V2000
   10.7220   -1.2810    0.0000 O   0  0  0  0  0  0  0  0  0  0  0  0
    3.7320   -0.2500    0.0000 O   0  0  0  0  0  0  0  0  0  0  0  0
    8.9940   -0.2740    0.0000 N   0  0  0  0  0  0  0  0  0  0  0  0
    5.4640   -0.2500    0.0000 N   0  0  0  0  0  0  0  0  0  0  0  0
    7.2240   -0.2850    0.0000 N   0  0  0  0  0  0  0  0  0  0  0  0
    5.4640    1.7500    0.0000 N   0  0  0  0  0  0  0  0  0  0  0  0
    8.1300    1.2710    0.0000 N   0  0  0  0  0  0  0  0  0  0  0  0
   10.7260   -0.2810    0.0000 C   0  0  0  0  0  0  0  0  0  0  0  0
    9.8550   -1.7780    0.0000 C   0  0  0  0  0  0  0  0  0  0  0  0
    8.9900   -1.2740    0.0000 C   0  0  0  0  0  0  0  0  0  0  0  0
    9.8620    0.2230    0.0000 C   0  0  0  0  0  0  0  0  0  0  0  0
    8.1300    0.2290    0.0000 C   0  0  0  0  0  0  0  0  0  0  0  0
    4.5980    0.2500    0.0000 C   0  0  0  0  0  0  0  0  0  0  0  0
    6.3300    0.2500    0.0000 C   0  0  0  0  0  0  0  0  0  0  0  0
    4.5980    1.2500    0.0000 C   0  0  0  0  0  0  0  0  0  0  0  0
    5.4640   -1.2500    0.0000 C   0  0  0  0  0  0  0  0  0  0  0  0
    6.3300    1.2500    0.0000 C   0  0  0  0  0  0  0  0  0  0  0  0
    3.7320    1.7500    0.0000 C   0  0  0  0  0  0  0  0  0  0  0  0
    7.2240    1.7850    0.0000 C   0  0  0  0  0  0  0  0  0  0  0  0
    4.5980   -1.7500    0.0000 C   0  0  0  0  0  0  0  0  0  0  0  0
    6.3300   -1.7500    0.0000 C   0  0  0  0  0  0  0  0  0  0  0  0
    3.7320    2.7500    0.0000 C   0  0  0  0  0  0  0  0  0  0  0  0
    2.8660    1.2500    0.0000 C   0  0  0  0  0  0  0  0  0  0  0  0
    6.3300   -2.7500    0.0000 C   0  0  0  0  0  0  0  0  0  0  0  0
    4.5980   -2.7500    0.0000 C   0  0  0  0  0  0  0  0  0  0  0  0
    2.8660    3.2500    0.0000 C   0  0  0  0  0  0  0  0  0  0  0  0
    2.0000    1.7500    0.0000 C   0  0  0  0  0  0  0  0  0  0  0  0
    5.4640   -3.2500    0.0000 C   0  0  0  0  0  0  0  0  0  0  0  0
    2.0000    2.7500    0.0000 C   0  0  0  0  0  0  0  0  0  0  0  0
   10.9410    0.3010    0.0000 H   0  0  0  0  0  0  0  0  0  0  0  0
   11.3360   -0.3910    0.0000 H   0  0  0  0  0  0  0  0  0  0  0  0
   10.2510   -2.2540    0.0000 H   0  0  0  0  0  0  0  0  0  0  0  0
    9.4540   -2.2510    0.0000 H   0  0  0  0  0  0  0  0  0  0  0  0
    8.3800   -1.1640    0.0000 H   0  0  0  0  0  0  0  0  0  0  0  0
    8.7760   -1.8560    0.0000 H   0  0  0  0  0  0  0  0  0  0  0  0
   10.2630    0.6960    0.0000 H   0  0  0  0  0  0  0  0  0  0  0  0
    9.4660    0.6990    0.0000 H   0  0  0  0  0  0  0  0  0  0  0  0
    7.2170    2.4050    0.0000 H   0  0  0  0  0  0  0  0  0  0  0  0
    6.8670   -1.4400    0.0000 H   0  0  0  0  0  0  0  0  0  0  0  0
    4.0610   -1.4400    0.0000 H   0  0  0  0  0  0  0  0  0  0  0  0
    2.8660    0.6300    0.0000 H   0  0  0  0  0  0  0  0  0  0  0  0
    4.2690    3.0600    0.0000 H   0  0  0  0  0  0  0  0  0  0  0  0
    6.8670   -3.0600    0.0000 H   0  0  0  0  0  0  0  0  0  0  0  0
    4.0610   -3.0600    0.0000 H   0  0  0  0  0  0  0  0  0  0  0  0
    2.8660    3.8700    0.0000 H   0  0  0  0  0  0  0  0  0  0  0  0
    1.4630    1.4400    0.0000 H   0  0  0  0  0  0  0  0  0  0  0  0
    5.4640   -3.8700    0.0000 H   0  0  0  0  0  0  0  0  0  0  0  0
    1.4630    3.0600    0.0000 H   0  0  0  0  0  0  0  0  0  0  0  0
  1  8  1  0  0  0  0
  1  9  1  0  0  0  0
  2 13  2  0  0  0  0
  3 11  1  0  0  0  0
  3 12  1  0  0  0  0
  3 10  1  0  0  0  0
  4 14  1  0  0  0  0
  4 16  1  0  0  0  0
  4 13  1  0  0  0  0
  5 12  1  0  0  0  0
  5 14  2  0  0  0  0
  6 17  1  0  0  0  0
  6 15  2  0  0  0  0
  7 12  2  0  0  0  0
  7 19  1  0  0  0  0
  8 31  1  0  0  0  0
  8 30  1  0  0  0  0
  8 11  1  0  0  0  0
  9 32  1  0  0  0  0
  9 33  1  0  0  0  0
  9 10  1  0  0  0  0
 10 34  1  0  0  0  0
 10 35  1  0  0  0  0
 11 36  1  0  0  0  0
 11 37  1  0  0  0  0
 13 15  1  0  0  0  0
 14 17  1  0  0  0  0
 15 18  1  0  0  0  0
 16 20  2  0  0  0  0
 16 21  1  0  0  0  0
 17 19  2  0  0  0  0
 18 22  2  0  0  0  0
 18 23  1  0  0  0  0
 19 38  1  0  0  0  0
 20 25  1  0  0  0  0
 20 40  1  0  0  0  0
 21 39  1  0  0  0  0
 21 24  2  0  0  0  0
 22 26  1  0  0  0  0
 22 42  1  0  0  0  0
 23 41  1  0  0  0  0
 23 27  2  0  0  0  0
 24 28  1  0  0  0  0
 24 43  1  0  0  0  0
 25 28  2  0  0  0  0
 25 44  1  0  0  0  0
 26 29  2  0  0  0  0
 26 45  1  0  0  0  0
 27 29  1  0  0  0  0
 27 46  1  0  0  0  0
 28 47  1  0  0  0  0
 29 48  1  0  0  0  0
M  END
$$$$
3235405
  MOE2005           2D

 49 53  0  0  0  0  0  0  0  0999 V2000
    5.3600   -3.3930    0.0000 S   0  0  0  0  0  0  0  0  0  0  0  0
    3.7320    3.6010    0.0000 F   0  0  0  0  0  0  0  0  0  0  0  0
    2.0000    0.6010    0.0000 F   0  0  0  0  0  0  0  0  0  0  0  0
    4.5980   -0.8990    0.0000 O   0  0  0  0  0  0  0  0  0  0  0  0
    9.8600   -0.9230    0.0000 N   0  0  0  0  0  0  0  0  0  0  0  0
   11.5880   -1.9300    0.0000 N   0  0  0  0  0  0  0  0  0  0  0  0
    6.3300   -0.8990    0.0000 N   0  0  0  0  0  0  0  0  0  0  0  0
    8.0900   -0.9330    0.0000 N   0  0  0  0  0  0  0  0  0  0  0  0
    6.3300    1.1010    0.0000 N   0  0  0  0  0  0  0  0  0  0  0  0
    8.9960    0.6220    0.0000 N   0  0  0  0  0  0  0  0  0  0  0  0
    6.3300   -1.8990    0.0000 C   0  0  0  0  0  0  0  0  0  0  0  0
    9.8560   -1.9230    0.0000 C   0  0  0  0  0  0  0  0  0  0  0  0
   10.7280   -0.4260    0.0000 C   0  0  0  0  0  0  0  0  0  0  0  0
   10.7210   -2.4260    0.0000 C   0  0  0  0  0  0  0  0  0  0  0  0
   11.5920   -0.9300    0.0000 C   0  0  0  0  0  0  0  0  0  0  0  0
    8.9960   -0.4200    0.0000 C   0  0  0  0  0  0  0  0  0  0  0  0
    5.4640   -0.3990    0.0000 C   0  0  0  0  0  0  0  0  0  0  0  0
    7.1960   -0.3990    0.0000 C   0  0  0  0  0  0  0  0  0  0  0  0
    5.4640   -2.3990    0.0000 C   0  0  0  0  0  0  0  0  0  0  0  0
    5.4640    0.6010    0.0000 C   0  0  0  0  0  0  0  0  0  0  0  0
    3.7320    2.6010    0.0000 C   0  0  0  0  0  0  0  0  0  0  0  0
    2.8660    1.1010    0.0000 C   0  0  0  0  0  0  0  0  0  0  0  0
    7.1960    0.6010    0.0000 C   0  0  0  0  0  0  0  0  0  0  0  0
    4.5980    1.1010    0.0000 C   0  0  0  0  0  0  0  0  0  0  0  0
    4.3810   -3.6010    0.0000 C   0  0  0  0  0  0  0  0  0  0  0  0
    8.0900    1.1360    0.0000 C   0  0  0  0  0  0  0  0  0  0  0  0
    2.8660    2.1010    0.0000 C   0  0  0  0  0  0  0  0  0  0  0  0
    4.5980    2.1010    0.0000 C   0  0  0  0  0  0  0  0  0  0  0  0
    3.7320    0.6010    0.0000 C   0  0  0  0  0  0  0  0  0  0  0  0
    4.5510   -1.9920    0.0000 C   0  0  0  0  0  0  0  0  0  0  0  0
    3.8810   -2.7350    0.0000 C   0  0  0  0  0  0  0  0  0  0  0  0
   12.1240   -2.2420    0.0000 H   0  0  0  0  0  0  0  0  0  0  0  0
    6.9410   -1.7910    0.0000 H   0  0  0  0  0  0  0  0  0  0  0  0
    6.5420   -2.4810    0.0000 H   0  0  0  0  0  0  0  0  0  0  0  0
   11.1290    0.0470    0.0000 H   0  0  0  0  0  0  0  0  0  0  0  0
   10.3320    0.0500    0.0000 H   0  0  0  0  0  0  0  0  0  0  0  0
    9.2460   -1.8130    0.0000 H   0  0  0  0  0  0  0  0  0  0  0  0
    9.6420   -2.5050    0.0000 H   0  0  0  0  0  0  0  0  0  0  0  0
   12.2030   -1.0400    0.0000 H   0  0  0  0  0  0  0  0  0  0  0  0
   11.8070   -0.3480    0.0000 H   0  0  0  0  0  0  0  0  0  0  0  0
   10.3200   -2.9000    0.0000 H   0  0  0  0  0  0  0  0  0  0  0  0
   11.1170   -2.9030    0.0000 H   0  0  0  0  0  0  0  0  0  0  0  0
    4.1290   -4.1680    0.0000 H   0  0  0  0  0  0  0  0  0  0  0  0
    8.0830    1.7560    0.0000 H   0  0  0  0  0  0  0  0  0  0  0  0
    2.3290    2.4110    0.0000 H   0  0  0  0  0  0  0  0  0  0  0  0
    3.7320   -0.0190    0.0000 H   0  0  0  0  0  0  0  0  0  0  0  0
    5.1350    2.4110    0.0000 H   0  0  0  0  0  0  0  0  0  0  0  0
    4.4220   -1.3860    0.0000 H   0  0  0  0  0  0  0  0  0  0  0  0
    3.2650   -2.6700    0.0000 H   0  0  0  0  0  0  0  0  0  0  0  0
  1 19  1  0  0  0  0
  1 25  1  0  0  0  0
  2 21  1  0  0  0  0
  3 22  1  0  0  0  0
  4 17  2  0  0  0  0
  5 16  1  0  0  0  0
  5 13  1  0  0  0  0
  5 12  1  0  0  0  0
  6 15  1  0  0  0  0
  6 32  1  0  0  0  0
  6 14  1  0  0  0  0
  7 11  1  0  0  0  0
  7 17  1  0  0  0  0
  7 18  1  0  0  0  0
  8 16  1  0  0  0  0
  8 18  2  0  0  0  0
  9 20  2  0  0  0  0
  9 23  1  0  0  0  0
 10 26  1  0  0  0  0
 10 16  2  0  0  0  0
 11 19  1  0  0  0  0
 11 33  1  0  0  0  0
 11 34  1  0  0  0  0
 12 38  1  0  0  0  0
 12 37  1  0  0  0  0
 12 14  1  0  0  0  0
 13 15  1  0  0  0  0
 13 35  1  0  0  0  0
 13 36  1  0  0  0  0
 14 41  1  0  0  0  0
 14 42  1  0  0  0  0
 15 39  1  0  0  0  0
 15 40  1  0  0  0  0
 17 20  1  0  0  0  0
 18 23  1  0  0  0  0
 19 30  2  0  0  0  0
 20 24  1  0  0  0  0
 21 28  1  0  0  0  0
 21 27  2  0  0  0  0
 22 27  1  0  0  0  0
 22 29  2  0  0  0  0
 23 26  2  0  0  0  0
 24 28  2  0  0  0  0
 24 29  1  0  0  0  0
 25 43  1  0  0  0  0
 25 31  2  0  0  0  0
 26 44  1  0  0  0  0
 27 45  1  0  0  0  0
 28 47  1  0  0  0  0
 29 46  1  0  0  0  0
 30 31  1  0  0  0  0
 30 48  1  0  0  0  0
 31 49  1  0  0  0  0
M  END
$$$$
3235418
  MOE2005           2D

 59 63  0  0  0  0  0  0  0  0999 V2000
    3.7320    3.7500    0.0000 F   0  0  0  0  0  0  0  0  0  0  0  0
    2.0000    0.7500    0.0000 F   0  0  0  0  0  0  0  0  0  0  0  0
    2.8660   -1.7500    0.0000 O   0  0  0  0  0  0  0  0  0  0  0  0
    4.5980   -0.7500    0.0000 O   0  0  0  0  0  0  0  0  0  0  0  0
   11.5880   -1.7810    0.0000 N   0  0  0  0  0  0  0  0  0  0  0  0
    9.8600   -0.7740    0.0000 N   0  0  0  0  0  0  0  0  0  0  0  0
    6.3300   -0.7500    0.0000 N   0  0  0  0  0  0  0  0  0  0  0  0
    8.0900   -0.7850    0.0000 N   0  0  0  0  0  0  0  0  0  0  0  0
    6.3300    1.2500    0.0000 N   0  0  0  0  0  0  0  0  0  0  0  0
    8.9960    0.7710    0.0000 N   0  0  0  0  0  0  0  0  0  0  0  0
    6.3300   -1.7500    0.0000 C   0  0  0  0  0  0  0  0  0  0  0  0
    2.0000   -2.2500    0.0000 C   0  0  0  0  0  0  0  0  0  0  0  0
   12.4530   -2.2840    0.0000 C   0  0  0  0  0  0  0  0  0  0  0  0
   10.7210   -2.2780    0.0000 C   0  0  0  0  0  0  0  0  0  0  0  0
   11.5920   -0.7810    0.0000 C   0  0  0  0  0  0  0  0  0  0  0  0
   10.7280   -0.2780    0.0000 C   0  0  0  0  0  0  0  0  0  0  0  0
    9.8560   -1.7740    0.0000 C   0  0  0  0  0  0  0  0  0  0  0  0
    8.9960   -0.2710    0.0000 C   0  0  0  0  0  0  0  0  0  0  0  0
    5.4640   -0.2500    0.0000 C   0  0  0  0  0  0  0  0  0  0  0  0
    7.1960   -0.2500    0.0000 C   0  0  0  0  0  0  0  0  0  0  0  0
    5.4640    0.7500    0.0000 C   0  0  0  0  0  0  0  0  0  0  0  0
    2.8660    1.2500    0.0000 C   0  0  0  0  0  0  0  0  0  0  0  0
    3.7320    2.7500    0.0000 C   0  0  0  0  0  0  0  0  0  0  0  0
    3.7320   -2.2500    0.0000 C   0  0  0  0  0  0  0  0  0  0  0  0
    7.1960    0.7500    0.0000 C   0  0  0  0  0  0  0  0  0  0  0  0
    5.4640   -2.2500    0.0000 C   0  0  0  0  0  0  0  0  0  0  0  0
    4.5980    1.2500    0.0000 C   0  0  0  0  0  0  0  0  0  0  0  0
    8.0900    1.2850    0.0000 C   0  0  0  0  0  0  0  0  0  0  0  0
    2.8660    2.2500    0.0000 C   0  0  0  0  0  0  0  0  0  0  0  0
    4.5980   -1.7500    0.0000 C   0  0  0  0  0  0  0  0  0  0  0  0
    4.5980    2.2500    0.0000 C   0  0  0  0  0  0  0  0  0  0  0  0
    3.7320    0.7500    0.0000 C   0  0  0  0  0  0  0  0  0  0  0  0
    3.7320   -3.2500    0.0000 C   0  0  0  0  0  0  0  0  0  0  0  0
    5.4640   -3.2500    0.0000 C   0  0  0  0  0  0  0  0  0  0  0  0
    4.5980   -3.7500    0.0000 C   0  0  0  0  0  0  0  0  0  0  0  0
    6.9410   -1.6420    0.0000 H   0  0  0  0  0  0  0  0  0  0  0  0
    6.5420   -2.3330    0.0000 H   0  0  0  0  0  0  0  0  0  0  0  0
    1.6900   -1.7130    0.0000 H   0  0  0  0  0  0  0  0  0  0  0  0
    1.4630   -2.5600    0.0000 H   0  0  0  0  0  0  0  0  0  0  0  0
    2.3100   -2.7870    0.0000 H   0  0  0  0  0  0  0  0  0  0  0  0
   12.1410   -2.8200    0.0000 H   0  0  0  0  0  0  0  0  0  0  0  0
   12.9880   -2.5960    0.0000 H   0  0  0  0  0  0  0  0  0  0  0  0
   12.7650   -1.7480    0.0000 H   0  0  0  0  0  0  0  0  0  0  0  0
   11.1170   -2.7540    0.0000 H   0  0  0  0  0  0  0  0  0  0  0  0
   10.3200   -2.7510    0.0000 H   0  0  0  0  0  0  0  0  0  0  0  0
   11.8070   -0.1990    0.0000 H   0  0  0  0  0  0  0  0  0  0  0  0
   12.2030   -0.8910    0.0000 H   0  0  0  0  0  0  0  0  0  0  0  0
   11.1290    0.1960    0.0000 H   0  0  0  0  0  0  0  0  0  0  0  0
   10.3320    0.1990    0.0000 H   0  0  0  0  0  0  0  0  0  0  0  0
    9.2460   -1.6640    0.0000 H   0  0  0  0  0  0  0  0  0  0  0  0
    9.6420   -2.3560    0.0000 H   0  0  0  0  0  0  0  0  0  0  0  0
    8.0830    1.9050    0.0000 H   0  0  0  0  0  0  0  0  0  0  0  0
    2.3290    2.5600    0.0000 H   0  0  0  0  0  0  0  0  0  0  0  0
    4.5980   -1.1300    0.0000 H   0  0  0  0  0  0  0  0  0  0  0  0
    5.1350    2.5600    0.0000 H   0  0  0  0  0  0  0  0  0  0  0  0
    3.7320    0.1300    0.0000 H   0  0  0  0  0  0  0  0  0  0  0  0
    3.1950   -3.5600    0.0000 H   0  0  0  0  0  0  0  0  0  0  0  0
    6.0010   -3.5600    0.0000 H   0  0  0  0  0  0  0  0  0  0  0  0
    4.5980   -4.3700    0.0000 H   0  0  0  0  0  0  0  0  0  0  0  0
  1 23  1  0  0  0  0
  2 22  1  0  0  0  0
  3 24  1  0  0  0  0
  3 12  1  0  0  0  0
  4 19  2  0  0  0  0
  5 14  1  0  0  0  0
  5 15  1  0  0  0  0
  5 13  1  0  0  0  0
  6 18  1  0  0  0  0
  6 17  1  0  0  0  0
  6 16  1  0  0  0  0
  7 19  1  0  0  0  0
  7 20  1  0  0  0  0
  7 11  1  0  0  0  0
  8 20  2  0  0  0  0
  8 18  1  0  0  0  0
  9 21  2  0  0  0  0
  9 25  1  0  0  0  0
 10 18  2  0  0  0  0
 10 28  1  0  0  0  0
 11 26  1  0  0  0  0
 11 36  1  0  0  0  0
 11 37  1  0  0  0  0
 12 38  1  0  0  0  0
 12 39  1  0  0  0  0
 12 40  1  0  0  0  0
 13 41  1  0  0  0  0
 13 42  1  0  0  0  0
 13 43  1  0  0  0  0
 14 17  1  0  0  0  0
 14 44  1  0  0  0  0
 14 45  1  0  0  0  0
 15 47  1  0  0  0  0
 15 46  1  0  0  0  0
 15 16  1  0  0  0  0
 16 48  1  0  0  0  0
 16 49  1  0  0  0  0
 17 50  1  0  0  0  0
 17 51  1  0  0  0  0
 19 21  1  0  0  0  0
 20 25  1  0  0  0  0
 21 27  1  0  0  0  0
 22 29  2  0  0  0  0
 22 32  1  0  0  0  0
 23 29  1  0  0  0  0
 23 31  2  0  0  0  0
 24 30  2  0  0  0  0
 24 33  1  0  0  0  0
 25 28  2  0  0  0  0
 26 30  1  0  0  0  0
 26 34  2  0  0  0  0
 27 32  2  0  0  0  0
 27 31  1  0  0  0  0
 28 52  1  0  0  0  0
 29 53  1  0  0  0  0
 30 54  1  0  0  0  0
 31 55  1  0  0  0  0
 32 56  1  0  0  0  0
 33 35  2  0  0  0  0
 33 57  1  0  0  0  0
 34 58  1  0  0  0  0
 34 35  1  0  0  0  0
 35 59  1  0  0  0  0
M  END
$$$$
3235419
  MOE2005           2D

 43 46  0  0  0  0  0  0  0  0999 V2000
    5.3600   -2.8930    0.0000 S   0  0  0  0  0  0  0  0  0  0  0  0
    2.0000    3.1010    0.0000 F   0  0  0  0  0  0  0  0  0  0  0  0
    4.5980   -0.3990    0.0000 O   0  0  0  0  0  0  0  0  0  0  0  0
    9.8600   -0.4230    0.0000 N   0  0  0  0  0  0  0  0  0  0  0  0
    6.3300   -0.3990    0.0000 N   0  0  0  0  0  0  0  0  0  0  0  0
    8.0900   -0.4330    0.0000 N   0  0  0  0  0  0  0  0  0  0  0  0
    6.3300    1.6010    0.0000 N   0  0  0  0  0  0  0  0  0  0  0  0
    8.9960    1.1220    0.0000 N   0  0  0  0  0  0  0  0  0  0  0  0
    6.3300   -1.3990    0.0000 C   0  0  0  0  0  0  0  0  0  0  0  0
   10.7280    0.0740    0.0000 C   0  0  0  0  0  0  0  0  0  0  0  0
    9.8560   -1.4230    0.0000 C   0  0  0  0  0  0  0  0  0  0  0  0
    8.9960    0.0800    0.0000 C   0  0  0  0  0  0  0  0  0  0  0  0
    5.4640    0.1010    0.0000 C   0  0  0  0  0  0  0  0  0  0  0  0
    7.1960    0.1010    0.0000 C   0  0  0  0  0  0  0  0  0  0  0  0
    5.4640   -1.8990    0.0000 C   0  0  0  0  0  0  0  0  0  0  0  0
    5.4640    1.1010    0.0000 C   0  0  0  0  0  0  0  0  0  0  0  0
    2.8660    2.6010    0.0000 C   0  0  0  0  0  0  0  0  0  0  0  0
    7.1960    1.1010    0.0000 C   0  0  0  0  0  0  0  0  0  0  0  0
    4.5980    1.6010    0.0000 C   0  0  0  0  0  0  0  0  0  0  0  0
    4.3810   -3.1010    0.0000 C   0  0  0  0  0  0  0  0  0  0  0  0
    8.0900    1.6360    0.0000 C   0  0  0  0  0  0  0  0  0  0  0  0
    4.5510   -1.4920    0.0000 C   0  0  0  0  0  0  0  0  0  0  0  0
    3.7320    3.1010    0.0000 C   0  0  0  0  0  0  0  0  0  0  0  0
    2.8660    1.6010    0.0000 C   0  0  0  0  0  0  0  0  0  0  0  0
    3.7320    1.1010    0.0000 C   0  0  0  0  0  0  0  0  0  0  0  0
    4.5980    2.6010    0.0000 C   0  0  0  0  0  0  0  0  0  0  0  0
    3.8810   -2.2350    0.0000 C   0  0  0  0  0  0  0  0  0  0  0  0
    6.9410   -1.2910    0.0000 H   0  0  0  0  0  0  0  0  0  0  0  0
    6.5420   -1.9810    0.0000 H   0  0  0  0  0  0  0  0  0  0  0  0
   10.4200    0.6120    0.0000 H   0  0  0  0  0  0  0  0  0  0  0  0
    9.2360   -1.4210    0.0000 H   0  0  0  0  0  0  0  0  0  0  0  0
    9.8540   -2.0430    0.0000 H   0  0  0  0  0  0  0  0  0  0  0  0
   10.4760   -1.4250    0.0000 H   0  0  0  0  0  0  0  0  0  0  0  0
   11.2660    0.3820    0.0000 H   0  0  0  0  0  0  0  0  0  0  0  0
   11.0360   -0.4640    0.0000 H   0  0  0  0  0  0  0  0  0  0  0  0
    4.1290   -3.6680    0.0000 H   0  0  0  0  0  0  0  0  0  0  0  0
    8.0830    2.2560    0.0000 H   0  0  0  0  0  0  0  0  0  0  0  0
    4.4220   -0.8860    0.0000 H   0  0  0  0  0  0  0  0  0  0  0  0
    3.7320    3.7210    0.0000 H   0  0  0  0  0  0  0  0  0  0  0  0
    2.3290    1.2910    0.0000 H   0  0  0  0  0  0  0  0  0  0  0  0
    5.1350    2.9110    0.0000 H   0  0  0  0  0  0  0  0  0  0  0  0
    3.7320    0.4810    0.0000 H   0  0  0  0  0  0  0  0  0  0  0  0
    3.2650   -2.1700    0.0000 H   0  0  0  0  0  0  0  0  0  0  0  0
  1 15  1  0  0  0  0
  1 20  1  0  0  0  0
  2 17  1  0  0  0  0
  3 13  2  0  0  0  0
  4 12  1  0  0  0  0
  4 11  1  0  0  0  0
  4 10  1  0  0  0  0
  5  9  1  0  0  0  0
  5 13  1  0  0  0  0
  5 14  1  0  0  0  0
  6 12  1  0  0  0  0
  6 14  2  0  0  0  0
  7 16  2  0  0  0  0
  7 18  1  0  0  0  0
  8 21  1  0  0  0  0
  8 12  2  0  0  0  0
  9 15  1  0  0  0  0
  9 28  1  0  0  0  0
  9 29  1  0  0  0  0
 10 30  1  0  0  0  0
 10 34  1  0  0  0  0
 10 35  1  0  0  0  0
 11 31  1  0  0  0  0
 11 32  1  0  0  0  0
 11 33  1  0  0  0  0
 13 16  1  0  0  0  0
 14 18  1  0  0  0  0
 15 22  2  0  0  0  0
 16 19  1  0  0  0  0
 17 24  2  0  0  0  0
 17 23  1  0  0  0  0
 18 21  2  0  0  0  0
 19 25  2  0  0  0  0
 19 26  1  0  0  0  0
 20 36  1  0  0  0  0
 20 27  2  0  0  0  0
 21 37  1  0  0  0  0
 22 27  1  0  0  0  0
 22 38  1  0  0  0  0
 23 39  1  0  0  0  0
 23 26  2  0  0  0  0
 24 25  1  0  0  0  0
 24 40  1  0  0  0  0
 25 42  1  0  0  0  0
 26 41  1  0  0  0  0
 27 43  1  0  0  0  0
M  END
$$$$
3235446
  MOE2005           2D

 55 59  0  0  1  0  0  0  0  0999 V2000
    2.0000    3.1010    0.0000 F   0  0  0  0  0  0  0  0  0  0  0  0
   13.3240   -0.4360    0.0000 O   0  0  0  0  0  0  0  0  0  0  0  0
    5.3600   -2.8930    0.0000 O   0  0  0  0  0  0  0  0  0  0  0  0
    4.5980   -0.3990    0.0000 O   0  0  0  0  0  0  0  0  0  0  0  0
    9.8600   -0.4230    0.0000 N   0  0  0  0  0  0  0  0  0  0  0  0
    6.3300   -0.3990    0.0000 N   0  0  0  0  0  0  0  0  0  0  0  0
    8.0900   -0.4330    0.0000 N   0  0  0  0  0  0  0  0  0  0  0  0
    6.3300    1.6010    0.0000 N   0  0  0  0  0  0  0  0  0  0  0  0
    8.9960    1.1220    0.0000 N   0  0  0  0  0  0  0  0  0  0  0  0
    6.3300   -1.3990    0.0000 C   0  0  2  0  0  0  0  0  0  0  0  0
   14.1920    0.0600    0.0000 C   0  0  0  0  0  0  0  0  0  0  0  0
    5.4640   -1.8990    0.0000 C   0  0  1  0  0  0  0  0  0  0  0  0
    4.3810   -3.1010    0.0000 C   0  0  0  0  0  0  0  0  0  0  0  0
    4.5510   -1.4920    0.0000 C   0  0  0  0  0  0  0  0  0  0  0  0
    3.8810   -2.2350    0.0000 C   0  0  0  0  0  0  0  0  0  0  0  0
    8.9960    0.0800    0.0000 C   0  0  0  0  0  0  0  0  0  0  0  0
    5.4640    0.1010    0.0000 C   0  0  0  0  0  0  0  0  0  0  0  0
    7.1960    0.1010    0.0000 C   0  0  0  0  0  0  0  0  0  0  0  0
    5.4640    1.1010    0.0000 C   0  0  0  0  0  0  0  0  0  0  0  0
    2.8660    2.6010    0.0000 C   0  0  0  0  0  0  0  0  0  0  0  0
   12.4600    0.0670    0.0000 C   0  0  0  0  0  0  0  0  0  0  0  0
   10.7280    0.0740    0.0000 C   0  0  0  0  0  0  0  0  0  0  0  0
    7.1960    1.1010    0.0000 C   0  0  0  0  0  0  0  0  0  0  0  0
    4.5980    1.6010    0.0000 C   0  0  0  0  0  0  0  0  0  0  0  0
    8.0900    1.6360    0.0000 C   0  0  0  0  0  0  0  0  0  0  0  0
   11.5920   -0.4300    0.0000 C   0  0  0  0  0  0  0  0  0  0  0  0
    2.8660    1.6010    0.0000 C   0  0  0  0  0  0  0  0  0  0  0  0
    3.7320    3.1010    0.0000 C   0  0  0  0  0  0  0  0  0  0  0  0
   12.4640    1.0670    0.0000 C   0  0  0  0  0  0  0  0  0  0  0  0
   10.7320    1.0740    0.0000 C   0  0  0  0  0  0  0  0  0  0  0  0
    3.7320    1.1010    0.0000 C   0  0  0  0  0  0  0  0  0  0  0  0
    4.5980    2.6010    0.0000 C   0  0  0  0  0  0  0  0  0  0  0  0
   11.6000    1.5700    0.0000 C   0  0  0  0  0  0  0  0  0  0  0  0
    9.8580   -1.0430    0.0000 H   0  0  0  0  0  0  0  0  0  0  0  0
    6.9410   -1.2910    0.0000 H   0  0  0  0  0  0  0  0  0  0  0  0
    6.5420   -1.9810    0.0000 H   0  0  0  0  0  0  0  0  0  0  0  0
   14.5000   -0.4780    0.0000 H   0  0  0  0  0  0  0  0  0  0  0  0
   14.7300    0.3680    0.0000 H   0  0  0  0  0  0  0  0  0  0  0  0
   13.8840    0.5990    0.0000 H   0  0  0  0  0  0  0  0  0  0  0  0
    5.9840   -2.2370    0.0000 H   0  0  0  0  0  0  0  0  0  0  0  0
    4.5730   -3.6910    0.0000 H   0  0  0  0  0  0  0  0  0  0  0  0
    3.8150   -3.3530    0.0000 H   0  0  0  0  0  0  0  0  0  0  0  0
    4.0490   -1.1280    0.0000 H   0  0  0  0  0  0  0  0  0  0  0  0
    4.8610   -0.9550    0.0000 H   0  0  0  0  0  0  0  0  0  0  0  0
    3.3800   -2.6000    0.0000 H   0  0  0  0  0  0  0  0  0  0  0  0
    3.4670   -1.7740    0.0000 H   0  0  0  0  0  0  0  0  0  0  0  0
    8.0830    2.2560    0.0000 H   0  0  0  0  0  0  0  0  0  0  0  0
   11.5900   -1.0500    0.0000 H   0  0  0  0  0  0  0  0  0  0  0  0
    2.3290    1.2910    0.0000 H   0  0  0  0  0  0  0  0  0  0  0  0
    3.7320    3.7210    0.0000 H   0  0  0  0  0  0  0  0  0  0  0  0
   13.0020    1.3750    0.0000 H   0  0  0  0  0  0  0  0  0  0  0  0
   10.1960    1.3860    0.0000 H   0  0  0  0  0  0  0  0  0  0  0  0
    3.7320    0.4810    0.0000 H   0  0  0  0  0  0  0  0  0  0  0  0
    5.1350    2.9110    0.0000 H   0  0  0  0  0  0  0  0  0  0  0  0
   11.6020    2.1900    0.0000 H   0  0  0  0  0  0  0  0  0  0  0  0
  1 20  1  0  0  0  0
  2 21  1  0  0  0  0
  2 11  1  0  0  0  0
  3 12  1  0  0  0  0
  3 13  1  0  0  0  0
  4 17  2  0  0  0  0
  5 16  1  0  0  0  0
  5 22  1  0  0  0  0
  5 34  1  0  0  0  0
  6 17  1  0  0  0  0
  6 18  1  0  0  0  0
  6 10  1  0  0  0  0
  7 18  2  0  0  0  0
  7 16  1  0  0  0  0
  8 19  2  0  0  0  0
  8 23  1  0  0  0  0
  9 16  2  0  0  0  0
  9 25  1  0  0  0  0
 10 36  1  6  0  0  0
 10 35  1  1  0  0  0
 10 12  1  0  0  0  0
 11 37  1  0  0  0  0
 11 38  1  0  0  0  0
 11 39  1  0  0  0  0
 12 40  1  1  0  0  0
 12 14  1  0  0  0  0
 13 15  1  0  0  0  0
 13 42  1  0  0  0  0
 13 41  1  0  0  0  0
 14 44  1  0  0  0  0
 14 43  1  0  0  0  0
 14 15  1  0  0  0  0
 15 45  1  0  0  0  0
 15 46  1  0  0  0  0
 17 19  1  0  0  0  0
 18 23  1  0  0  0  0
 19 24  1  0  0  0  0
 20 27  2  0  0  0  0
 20 28  1  0  0  0  0
 21 29  1  0  0  0  0
 21 26  2  0  0  0  0
 22 30  2  0  0  0  0
 22 26  1  0  0  0  0
 23 25  2  0  0  0  0
 24 31  2  0  0  0  0
 24 32  1  0  0  0  0
 25 47  1  0  0  0  0
 26 48  1  0  0  0  0
 27 49  1  0  0  0  0
 27 31  1  0  0  0  0
 28 50  1  0  0  0  0
 28 32  2  0  0  0  0
 29 33  2  0  0  0  0
 29 51  1  0  0  0  0
 30 52  1  0  0  0  0
 30 33  1  0  0  0  0
 31 53  1  0  0  0  0
 32 54  1  0  0  0  0
 33 55  1  0  0  0  0
M  END
$$$$
3235449
  MOE2005           2D

 40 42  0  0  0  0  0  0  0  0999 V2000
    3.7320    4.0000    0.0000 F   0  0  0  0  0  0  0  0  0  0  0  0
    2.0000    1.0000    0.0000 F   0  0  0  0  0  0  0  0  0  0  0  0
    4.5980   -0.5000    0.0000 O   0  0  0  0  0  0  0  0  0  0  0  0
    9.8600   -0.5240    0.0000 N   0  0  0  0  0  0  0  0  0  0  0  0
    6.3300   -0.5000    0.0000 N   0  0  0  0  0  0  0  0  0  0  0  0
    8.0900   -0.5350    0.0000 N   0  0  0  0  0  0  0  0  0  0  0  0
    6.3300    1.5000    0.0000 N   0  0  0  0  0  0  0  0  0  0  0  0
    8.9960    1.0210    0.0000 N   0  0  0  0  0  0  0  0  0  0  0  0
    5.4640   -4.0000    0.0000 N   0  0  0  0  0  0  0  0  0  0  0  0
   10.7280   -0.0280    0.0000 C   0  0  0  0  0  0  0  0  0  0  0  0
    6.3300   -1.5000    0.0000 C   0  0  0  0  0  0  0  0  0  0  0  0
    5.4640   -2.0000    0.0000 C   0  0  0  0  0  0  0  0  0  0  0  0
   11.5920   -0.5310    0.0000 C   0  0  0  0  0  0  0  0  0  0  0  0
    8.9960   -0.0210    0.0000 C   0  0  0  0  0  0  0  0  0  0  0  0
    5.4640    0.0000    0.0000 C   0  0  0  0  0  0  0  0  0  0  0  0
    7.1960    0.0000    0.0000 C   0  0  0  0  0  0  0  0  0  0  0  0
    5.4640    1.0000    0.0000 C   0  0  0  0  0  0  0  0  0  0  0  0
    3.7320    3.0000    0.0000 C   0  0  0  0  0  0  0  0  0  0  0  0
    2.8660    1.5000    0.0000 C   0  0  0  0  0  0  0  0  0  0  0  0
    7.1960    1.0000    0.0000 C   0  0  0  0  0  0  0  0  0  0  0  0
    4.5980    1.5000    0.0000 C   0  0  0  0  0  0  0  0  0  0  0  0
    8.0900    1.5350    0.0000 C   0  0  0  0  0  0  0  0  0  0  0  0
    2.8660    2.5000    0.0000 C   0  0  0  0  0  0  0  0  0  0  0  0
    4.5980    2.5000    0.0000 C   0  0  0  0  0  0  0  0  0  0  0  0
    3.7320    1.0000    0.0000 C   0  0  0  0  0  0  0  0  0  0  0  0
    5.4640   -3.0000    0.0000 C   0  0  0  0  0  0  0  0  0  0  0  0
    9.8580   -1.1440    0.0000 H   0  0  0  0  0  0  0  0  0  0  0  0
   11.1290    0.4460    0.0000 H   0  0  0  0  0  0  0  0  0  0  0  0
   10.3320    0.4490    0.0000 H   0  0  0  0  0  0  0  0  0  0  0  0
    6.5420   -2.0830    0.0000 H   0  0  0  0  0  0  0  0  0  0  0  0
    6.9410   -1.3920    0.0000 H   0  0  0  0  0  0  0  0  0  0  0  0
    5.2520   -1.4170    0.0000 H   0  0  0  0  0  0  0  0  0  0  0  0
    4.8540   -2.1080    0.0000 H   0  0  0  0  0  0  0  0  0  0  0  0
   12.1280   -0.8430    0.0000 H   0  0  0  0  0  0  0  0  0  0  0  0
   11.9040    0.0050    0.0000 H   0  0  0  0  0  0  0  0  0  0  0  0
   11.2800   -1.0670    0.0000 H   0  0  0  0  0  0  0  0  0  0  0  0
    8.0830    2.1550    0.0000 H   0  0  0  0  0  0  0  0  0  0  0  0
    2.3290    2.8100    0.0000 H   0  0  0  0  0  0  0  0  0  0  0  0
    3.7320    0.3800    0.0000 H   0  0  0  0  0  0  0  0  0  0  0  0
    5.1350    2.8100    0.0000 H   0  0  0  0  0  0  0  0  0  0  0  0
  1 18  1  0  0  0  0
  2 19  1  0  0  0  0
  3 15  2  0  0  0  0
  4 14  1  0  0  0  0
  4 27  1  0  0  0  0
  4 10  1  0  0  0  0
  5 15  1  0  0  0  0
  5 16  1  0  0  0  0
  5 11  1  0  0  0  0
  6 16  2  0  0  0  0
  6 14  1  0  0  0  0
  7 17  2  0  0  0  0
  7 20  1  0  0  0  0
  8 14  2  0  0  0  0
  8 22  1  0  0  0  0
  9 26  3  0  0  0  0
 10 13  1  0  0  0  0
 10 28  1  0  0  0  0
 10 29  1  0  0  0  0
 11 12  1  0  0  0  0
 11 30  1  0  0  0  0
 11 31  1  0  0  0  0
 12 26  1  0  0  0  0
 12 32  1  0  0  0  0
 12 33  1  0  0  0  0
 13 34  1  0  0  0  0
 13 35  1  0  0  0  0
 13 36  1  0  0  0  0
 15 17  1  0  0  0  0
 16 20  1  0  0  0  0
 17 21  1  0  0  0  0
 18 23  2  0  0  0  0
 18 24  1  0  0  0  0
 19 23  1  0  0  0  0
 19 25  2  0  0  0  0
 20 22  2  0  0  0  0
 21 25  1  0  0  0  0
 21 24  2  0  0  0  0
 22 37  1  0  0  0  0
 23 38  1  0  0  0  0
 24 40  1  0  0  0  0
 25 39  1  0  0  0  0
M  END
$$$$
3235457
  MOE2005           2D

 45 48  0  0  0  0  0  0  0  0999 V2000
    3.7320    4.0000    0.0000 F   0  0  0  0  0  0  0  0  0  0  0  0
    2.0000    1.0000    0.0000 F   0  0  0  0  0  0  0  0  0  0  0  0
   11.5880   -1.5310    0.0000 O   0  0  0  0  0  0  0  0  0  0  0  0
    4.5980   -0.5000    0.0000 O   0  0  0  0  0  0  0  0  0  0  0  0
    9.8600   -0.5240    0.0000 N   0  0  0  0  0  0  0  0  0  0  0  0
    6.3300   -0.5000    0.0000 N   0  0  0  0  0  0  0  0  0  0  0  0
    8.0900   -0.5350    0.0000 N   0  0  0  0  0  0  0  0  0  0  0  0
    6.3300    1.5000    0.0000 N   0  0  0  0  0  0  0  0  0  0  0  0
    8.9960    1.0210    0.0000 N   0  0  0  0  0  0  0  0  0  0  0  0
    5.4640   -4.0000    0.0000 N   0  0  0  0  0  0  0  0  0  0  0  0
    6.3300   -1.5000    0.0000 C   0  0  0  0  0  0  0  0  0  0  0  0
    5.4640   -2.0000    0.0000 C   0  0  0  0  0  0  0  0  0  0  0  0
   10.7210   -2.0270    0.0000 C   0  0  0  0  0  0  0  0  0  0  0  0
   11.5920   -0.5310    0.0000 C   0  0  0  0  0  0  0  0  0  0  0  0
    9.8560   -1.5240    0.0000 C   0  0  0  0  0  0  0  0  0  0  0  0
   10.7280   -0.0280    0.0000 C   0  0  0  0  0  0  0  0  0  0  0  0
    8.9960   -0.0210    0.0000 C   0  0  0  0  0  0  0  0  0  0  0  0
    5.4640    0.0000    0.0000 C   0  0  0  0  0  0  0  0  0  0  0  0
    7.1960    0.0000    0.0000 C   0  0  0  0  0  0  0  0  0  0  0  0
    5.4640    1.0000    0.0000 C   0  0  0  0  0  0  0  0  0  0  0  0
    3.7320    3.0000    0.0000 C   0  0  0  0  0  0  0  0  0  0  0  0
    2.8660    1.5000    0.0000 C   0  0  0  0  0  0  0  0  0  0  0  0
    7.1960    1.0000    0.0000 C   0  0  0  0  0  0  0  0  0  0  0  0
    4.5980    1.5000    0.0000 C   0  0  0  0  0  0  0  0  0  0  0  0
    8.0900    1.5350    0.0000 C   0  0  0  0  0  0  0  0  0  0  0  0
    2.8660    2.5000    0.0000 C   0  0  0  0  0  0  0  0  0  0  0  0
    4.5980    2.5000    0.0000 C   0  0  0  0  0  0  0  0  0  0  0  0
    3.7320    1.0000    0.0000 C   0  0  0  0  0  0  0  0  0  0  0  0
    5.4640   -3.0000    0.0000 C   0  0  0  0  0  0  0  0  0  0  0  0
    6.9410   -1.3920    0.0000 H   0  0  0  0  0  0  0  0  0  0  0  0
    6.5420   -2.0830    0.0000 H   0  0  0  0  0  0  0  0  0  0  0  0
    5.2520   -1.4170    0.0000 H   0  0  0  0  0  0  0  0  0  0  0  0
    4.8540   -2.1080    0.0000 H   0  0  0  0  0  0  0  0  0  0  0  0
   10.3200   -2.5010    0.0000 H   0  0  0  0  0  0  0  0  0  0  0  0
   11.1170   -2.5040    0.0000 H   0  0  0  0  0  0  0  0  0  0  0  0
   12.2030   -0.6410    0.0000 H   0  0  0  0  0  0  0  0  0  0  0  0
   11.8070    0.0510    0.0000 H   0  0  0  0  0  0  0  0  0  0  0  0
    9.2460   -1.4140    0.0000 H   0  0  0  0  0  0  0  0  0  0  0  0
    9.6420   -2.1060    0.0000 H   0  0  0  0  0  0  0  0  0  0  0  0
   11.1290    0.4460    0.0000 H   0  0  0  0  0  0  0  0  0  0  0  0
   10.3320    0.4490    0.0000 H   0  0  0  0  0  0  0  0  0  0  0  0
    8.0830    2.1550    0.0000 H   0  0  0  0  0  0  0  0  0  0  0  0
    2.3290    2.8100    0.0000 H   0  0  0  0  0  0  0  0  0  0  0  0
    5.1350    2.8100    0.0000 H   0  0  0  0  0  0  0  0  0  0  0  0
    3.7320    0.3800    0.0000 H   0  0  0  0  0  0  0  0  0  0  0  0
  1 21  1  0  0  0  0
  2 22  1  0  0  0  0
  3 14  1  0  0  0  0
  3 13  1  0  0  0  0
  4 18  2  0  0  0  0
  5 17  1  0  0  0  0
  5 16  1  0  0  0  0
  5 15  1  0  0  0  0
  6 18  1  0  0  0  0
  6 19  1  0  0  0  0
  6 11  1  0  0  0  0
  7 19  2  0  0  0  0
  7 17  1  0  0  0  0
  8 20  2  0  0  0  0
  8 23  1  0  0  0  0
  9 17  2  0  0  0  0
  9 25  1  0  0  0  0
 10 29  3  0  0  0  0
 11 12  1  0  0  0  0
 11 30  1  0  0  0  0
 11 31  1  0  0  0  0
 12 29  1  0  0  0  0
 12 32  1  0  0  0  0
 12 33  1  0  0  0  0
 13 35  1  0  0  0  0
 13 34  1  0  0  0  0
 13 15  1  0  0  0  0
 14 16  1  0  0  0  0
 14 36  1  0  0  0  0
 14 37  1  0  0  0  0
 15 38  1  0  0  0  0
 15 39  1  0  0  0  0
 16 40  1  0  0  0  0
 16 41  1  0  0  0  0
 18 20  1  0  0  0  0
 19 23  1  0  0  0  0
 20 24  1  0  0  0  0
 21 26  2  0  0  0  0
 21 27  1  0  0  0  0
 22 26  1  0  0  0  0
 22 28  2  0  0  0  0
 23 25  2  0  0  0  0
 24 28  1  0  0  0  0
 24 27  2  0  0  0  0
 25 42  1  0  0  0  0
 26 43  1  0  0  0  0
 27 44  1  0  0  0  0
 28 45  1  0  0  0  0
M  END
$$$$
3235461
  MOE2005           2D

 48 50  0  0  0  0  0  0  0  0999 V2000
    5.4640    4.5000    0.0000 O   0  0  0  0  0  0  0  0  0  0  0  0
    6.3300   -1.0000    0.0000 N   0  0  0  0  0  0  0  0  0  0  0  0
    6.3300    3.0000    0.0000 N   0  0  0  0  0  0  0  0  0  0  0  0
    2.0000   -4.5000    0.0000 N   0  0  0  0  0  0  0  0  0  0  0  0
    6.3300   -2.0000    0.0000 C   0  0  0  0  0  0  0  0  0  0  0  0
    7.1960    4.5000    0.0000 C   0  0  0  0  0  0  0  0  0  0  0  0
    6.3300    1.0000    0.0000 C   0  0  0  0  0  0  0  0  0  0  0  0
    7.1960   -0.5000    0.0000 C   0  0  0  0  0  0  0  0  0  0  0  0
    5.4640   -0.5000    0.0000 C   0  0  0  0  0  0  0  0  0  0  0  0
    7.1960    2.5000    0.0000 C   0  0  0  0  0  0  0  0  0  0  0  0
    5.4640    2.5000    0.0000 C   0  0  0  0  0  0  0  0  0  0  0  0
    5.4640    0.5000    0.0000 C   0  0  0  0  0  0  0  0  0  0  0  0
    7.1960    0.5000    0.0000 C   0  0  0  0  0  0  0  0  0  0  0  0
    7.1960    1.5000    0.0000 C   0  0  0  0  0  0  0  0  0  0  0  0
    5.4640    1.5000    0.0000 C   0  0  0  0  0  0  0  0  0  0  0  0
    6.3300    4.0000    0.0000 C   0  0  0  0  0  0  0  0  0  0  0  0
    5.4640   -2.5000    0.0000 C   0  0  0  0  0  0  0  0  0  0  0  0
    3.7320   -3.5000    0.0000 C   0  0  0  0  0  0  0  0  0  0  0  0
    5.4640   -3.5000    0.0000 C   0  0  0  0  0  0  0  0  0  0  0  0
    4.5980   -2.0000    0.0000 C   0  0  0  0  0  0  0  0  0  0  0  0
    4.5980   -4.0000    0.0000 C   0  0  0  0  0  0  0  0  0  0  0  0
    3.7320   -2.5000    0.0000 C   0  0  0  0  0  0  0  0  0  0  0  0
    2.8660   -4.0000    0.0000 C   0  0  0  0  0  0  0  0  0  0  0  0
    6.9410   -1.8920    0.0000 H   0  0  0  0  0  0  0  0  0  0  0  0
    6.5420   -2.5830    0.0000 H   0  0  0  0  0  0  0  0  0  0  0  0
    7.5060    3.9630    0.0000 H   0  0  0  0  0  0  0  0  0  0  0  0
    7.7330    4.8100    0.0000 H   0  0  0  0  0  0  0  0  0  0  0  0
    6.8860    5.0370    0.0000 H   0  0  0  0  0  0  0  0  0  0  0  0
    5.2520   -1.0830    0.0000 H   0  0  0  0  0  0  0  0  0  0  0  0
    4.8540   -0.3920    0.0000 H   0  0  0  0  0  0  0  0  0  0  0  0
    7.4080   -1.0830    0.0000 H   0  0  0  0  0  0  0  0  0  0  0  0
    7.8070   -0.3920    0.0000 H   0  0  0  0  0  0  0  0  0  0  0  0
    7.4080    3.0830    0.0000 H   0  0  0  0  0  0  0  0  0  0  0  0
    7.8070    2.3920    0.0000 H   0  0  0  0  0  0  0  0  0  0  0  0
    4.8540    2.3920    0.0000 H   0  0  0  0  0  0  0  0  0  0  0  0
    5.2520    3.0830    0.0000 H   0  0  0  0  0  0  0  0  0  0  0  0
    7.8070    0.3920    0.0000 H   0  0  0  0  0  0  0  0  0  0  0  0
    7.4080    1.0830    0.0000 H   0  0  0  0  0  0  0  0  0  0  0  0
    5.2520    1.0830    0.0000 H   0  0  0  0  0  0  0  0  0  0  0  0
    4.8540    0.3920    0.0000 H   0  0  0  0  0  0  0  0  0  0  0  0
    7.8070    1.6080    0.0000 H   0  0  0  0  0  0  0  0  0  0  0  0
    7.4080    0.9170    0.0000 H   0  0  0  0  0  0  0  0  0  0  0  0
    5.2520    0.9170    0.0000 H   0  0  0  0  0  0  0  0  0  0  0  0
    4.8540    1.6080    0.0000 H   0  0  0  0  0  0  0  0  0  0  0  0
    4.5980   -1.3800    0.0000 H   0  0  0  0  0  0  0  0  0  0  0  0
    6.0010   -3.8100    0.0000 H   0  0  0  0  0  0  0  0  0  0  0  0
    4.5980   -4.6200    0.0000 H   0  0  0  0  0  0  0  0  0  0  0  0
    3.1950   -2.1900    0.0000 H   0  0  0  0  0  0  0  0  0  0  0  0
  1 16  2  0  0  0  0
  2  8  1  0  0  0  0
  2  9  1  0  0  0  0
  2  5  1  0  0  0  0
  3 16  1  0  0  0  0
  3 11  1  0  0  0  0
  3 10  1  0  0  0  0
  4 23  3  0  0  0  0
  5 17  1  0  0  0  0
  5 24  1  0  0  0  0
  5 25  1  0  0  0  0
  6 16  1  0  0  0  0
  6 26  1  0  0  0  0
  6 27  1  0  0  0  0
  6 28  1  0  0  0  0
  7 15  1  0  0  0  0
  7 13  1  0  0  0  0
  7 14  1  0  0  0  0
  7 12  1  0  0  0  0
  8 13  1  0  0  0  0
  8 31  1  0  0  0  0
  8 32  1  0  0  0  0
  9 30  1  0  0  0  0
  9 29  1  0  0  0  0
  9 12  1  0  0  0  0
 10 34  1  0  0  0  0
 10 33  1  0  0  0  0
 10 14  1  0  0  0  0
 11 15  1  0  0  0  0
 11 35  1  0  0  0  0
 11 36  1  0  0  0  0
 12 39  1  0  0  0  0
 12 40  1  0  0  0  0
 13 37  1  0  0  0  0
 13 38  1  0  0  0  0
 14 41  1  0  0  0  0
 14 42  1  0  0  0  0
 15 43  1  0  0  0  0
 15 44  1  0  0  0  0
 17 19  1  0  0  0  0
 17 20  2  0  0  0  0
 18 21  1  0  0  0  0
 18 22  2  0  0  0  0
 18 23  1  0  0  0  0
 19 21  2  0  0  0  0
 19 46  1  0  0  0  0
 20 45  1  0  0  0  0
 20 22  1  0  0  0  0
 21 47  1  0  0  0  0
 22 48  1  0  0  0  0
M  END
$$$$
3235482
  MOE2005           2D

 49 52  0  0  0  0  0  0  0  0999 V2000
    2.0000    3.0000    0.0000 O   0  0  0  0  0  0  0  0  0  0  0  0
   11.5880   -1.5310    0.0000 O   0  0  0  0  0  0  0  0  0  0  0  0
    4.5980   -0.5000    0.0000 O   0  0  0  0  0  0  0  0  0  0  0  0
    9.8600   -0.5240    0.0000 N   0  0  0  0  0  0  0  0  0  0  0  0
    6.3300   -0.5000    0.0000 N   0  0  0  0  0  0  0  0  0  0  0  0
    8.0900   -0.5350    0.0000 N   0  0  0  0  0  0  0  0  0  0  0  0
    6.3300    1.5000    0.0000 N   0  0  0  0  0  0  0  0  0  0  0  0
    8.9960    1.0210    0.0000 N   0  0  0  0  0  0  0  0  0  0  0  0
    5.4640   -4.0000    0.0000 N   0  0  0  0  0  0  0  0  0  0  0  0
    6.3300   -1.5000    0.0000 C   0  0  0  0  0  0  0  0  0  0  0  0
    5.4640   -2.0000    0.0000 C   0  0  0  0  0  0  0  0  0  0  0  0
    2.0000    4.0000    0.0000 C   0  0  0  0  0  0  0  0  0  0  0  0
   11.5920   -0.5310    0.0000 C   0  0  0  0  0  0  0  0  0  0  0  0
   10.7210   -2.0270    0.0000 C   0  0  0  0  0  0  0  0  0  0  0  0
    9.8560   -1.5240    0.0000 C   0  0  0  0  0  0  0  0  0  0  0  0
   10.7280   -0.0280    0.0000 C   0  0  0  0  0  0  0  0  0  0  0  0
    8.9960   -0.0210    0.0000 C   0  0  0  0  0  0  0  0  0  0  0  0
    5.4640    0.0000    0.0000 C   0  0  0  0  0  0  0  0  0  0  0  0
    7.1960    0.0000    0.0000 C   0  0  0  0  0  0  0  0  0  0  0  0
    5.4640    1.0000    0.0000 C   0  0  0  0  0  0  0  0  0  0  0  0
    2.8660    2.5000    0.0000 C   0  0  0  0  0  0  0  0  0  0  0  0
    7.1960    1.0000    0.0000 C   0  0  0  0  0  0  0  0  0  0  0  0
    4.5980    1.5000    0.0000 C   0  0  0  0  0  0  0  0  0  0  0  0
    8.0900    1.5350    0.0000 C   0  0  0  0  0  0  0  0  0  0  0  0
    2.8660    1.5000    0.0000 C   0  0  0  0  0  0  0  0  0  0  0  0
    3.7320    3.0000    0.0000 C   0  0  0  0  0  0  0  0  0  0  0  0
    3.7320    1.0000    0.0000 C   0  0  0  0  0  0  0  0  0  0  0  0
    4.5980    2.5000    0.0000 C   0  0  0  0  0  0  0  0  0  0  0  0
    5.4640   -3.0000    0.0000 C   0  0  0  0  0  0  0  0  0  0  0  0
    6.9410   -1.3920    0.0000 H   0  0  0  0  0  0  0  0  0  0  0  0
    6.5420   -2.0830    0.0000 H   0  0  0  0  0  0  0  0  0  0  0  0
    4.8540   -2.1080    0.0000 H   0  0  0  0  0  0  0  0  0  0  0  0
    5.2520   -1.4170    0.0000 H   0  0  0  0  0  0  0  0  0  0  0  0
    2.6200    4.0000    0.0000 H   0  0  0  0  0  0  0  0  0  0  0  0
    2.0000    4.6200    0.0000 H   0  0  0  0  0  0  0  0  0  0  0  0
    1.3800    4.0000    0.0000 H   0  0  0  0  0  0  0  0  0  0  0  0
   10.3200   -2.5010    0.0000 H   0  0  0  0  0  0  0  0  0  0  0  0
   11.1170   -2.5040    0.0000 H   0  0  0  0  0  0  0  0  0  0  0  0
   12.2030   -0.6410    0.0000 H   0  0  0  0  0  0  0  0  0  0  0  0
   11.8070    0.0510    0.0000 H   0  0  0  0  0  0  0  0  0  0  0  0
    9.2460   -1.4140    0.0000 H   0  0  0  0  0  0  0  0  0  0  0  0
    9.6420   -2.1060    0.0000 H   0  0  0  0  0  0  0  0  0  0  0  0
   11.1290    0.4460    0.0000 H   0  0  0  0  0  0  0  0  0  0  0  0
   10.3320    0.4490    0.0000 H   0  0  0  0  0  0  0  0  0  0  0  0
    8.0830    2.1550    0.0000 H   0  0  0  0  0  0  0  0  0  0  0  0
    2.3290    1.1900    0.0000 H   0  0  0  0  0  0  0  0  0  0  0  0
    3.7320    3.6200    0.0000 H   0  0  0  0  0  0  0  0  0  0  0  0
    3.7320    0.3800    0.0000 H   0  0  0  0  0  0  0  0  0  0  0  0
    5.1350    2.8100    0.0000 H   0  0  0  0  0  0  0  0  0  0  0  0
  1 12  1  0  0  0  0
  1 21  1  0  0  0  0
  2 13  1  0  0  0  0
  2 14  1  0  0  0  0
  3 18  2  0  0  0  0
  4 17  1  0  0  0  0
  4 16  1  0  0  0  0
  4 15  1  0  0  0  0
  5 18  1  0  0  0  0
  5 19  1  0  0  0  0
  5 10  1  0  0  0  0
  6 19  2  0  0  0  0
  6 17  1  0  0  0  0
  7 20  2  0  0  0  0
  7 22  1  0  0  0  0
  8 17  2  0  0  0  0
  8 24  1  0  0  0  0
  9 29  3  0  0  0  0
 10 11  1  0  0  0  0
 10 30  1  0  0  0  0
 10 31  1  0  0  0  0
 11 29  1  0  0  0  0
 11 32  1  0  0  0  0
 11 33  1  0  0  0  0
 12 34  1  0  0  0  0
 12 35  1  0  0  0  0
 12 36  1  0  0  0  0
 13 16  1  0  0  0  0
 13 39  1  0  0  0  0
 13 40  1  0  0  0  0
 14 38  1  0  0  0  0
 14 37  1  0  0  0  0
 14 15  1  0  0  0  0
 15 41  1  0  0  0  0
 15 42  1  0  0  0  0
 16 43  1  0  0  0  0
 16 44  1  0  0  0  0
 18 20  1  0  0  0  0
 19 22  1  0  0  0  0
 20 23  1  0  0  0  0
 21 25  2  0  0  0  0
 21 26  1  0  0  0  0
 22 24  2  0  0  0  0
 23 27  2  0  0  0  0
 23 28  1  0  0  0  0
 24 45  1  0  0  0  0
 25 27  1  0  0  0  0
 25 46  1  0  0  0  0
 26 47  1  0  0  0  0
 26 28  2  0  0  0  0
 27 48  1  0  0  0  0
 28 49  1  0  0  0  0
M  END
$$$$
3235499
  MOE2005           2D

 46 50  0  0  0  0  0  0  0  0999 V2000
    2.0000    2.6830    0.0000 F   0  0  0  0  0  0  0  0  0  0  0  0
    4.5980   -0.8170    0.0000 O   0  0  0  0  0  0  0  0  0  0  0  0
    9.8600   -0.8410    0.0000 N   0  0  0  0  0  0  0  0  0  0  0  0
   11.5880   -1.8480    0.0000 N   0  0  0  0  0  0  0  0  0  0  0  0
    6.3300   -0.8170    0.0000 N   0  0  0  0  0  0  0  0  0  0  0  0
    8.0900   -0.8520    0.0000 N   0  0  0  0  0  0  0  0  0  0  0  0
    6.3300    1.1830    0.0000 N   0  0  0  0  0  0  0  0  0  0  0  0
    8.9960    0.7040    0.0000 N   0  0  0  0  0  0  0  0  0  0  0  0
    6.3300   -1.8170    0.0000 C   0  0  0  0  0  0  0  0  0  0  0  0
   10.7280   -0.3450    0.0000 C   0  0  0  0  0  0  0  0  0  0  0  0
    9.8560   -1.8410    0.0000 C   0  0  0  0  0  0  0  0  0  0  0  0
   11.5920   -0.8480    0.0000 C   0  0  0  0  0  0  0  0  0  0  0  0
   10.7210   -2.3450    0.0000 C   0  0  0  0  0  0  0  0  0  0  0  0
    6.8300   -2.6830    0.0000 C   0  0  0  0  0  0  0  0  0  0  0  0
    5.8300   -2.6830    0.0000 C   0  0  0  0  0  0  0  0  0  0  0  0
    8.9960   -0.3380    0.0000 C   0  0  0  0  0  0  0  0  0  0  0  0
    5.4640   -0.3170    0.0000 C   0  0  0  0  0  0  0  0  0  0  0  0
    7.1960   -0.3170    0.0000 C   0  0  0  0  0  0  0  0  0  0  0  0
    5.4640    0.6830    0.0000 C   0  0  0  0  0  0  0  0  0  0  0  0
    2.8660    2.1830    0.0000 C   0  0  0  0  0  0  0  0  0  0  0  0
    7.1960    0.6830    0.0000 C   0  0  0  0  0  0  0  0  0  0  0  0
    4.5980    1.1830    0.0000 C   0  0  0  0  0  0  0  0  0  0  0  0
    8.0900    1.2180    0.0000 C   0  0  0  0  0  0  0  0  0  0  0  0
    3.7320    2.6830    0.0000 C   0  0  0  0  0  0  0  0  0  0  0  0
    2.8660    1.1830    0.0000 C   0  0  0  0  0  0  0  0  0  0  0  0
    3.7320    0.6830    0.0000 C   0  0  0  0  0  0  0  0  0  0  0  0
    4.5980    2.1830    0.0000 C   0  0  0  0  0  0  0  0  0  0  0  0
   12.1240   -2.1600    0.0000 H   0  0  0  0  0  0  0  0  0  0  0  0
    6.9290   -1.6570    0.0000 H   0  0  0  0  0  0  0  0  0  0  0  0
    9.6420   -2.4230    0.0000 H   0  0  0  0  0  0  0  0  0  0  0  0
    9.2460   -1.7310    0.0000 H   0  0  0  0  0  0  0  0  0  0  0  0
   10.3320    0.1320    0.0000 H   0  0  0  0  0  0  0  0  0  0  0  0
   11.1290    0.1290    0.0000 H   0  0  0  0  0  0  0  0  0  0  0  0
   11.1170   -2.8210    0.0000 H   0  0  0  0  0  0  0  0  0  0  0  0
   10.3200   -2.8180    0.0000 H   0  0  0  0  0  0  0  0  0  0  0  0
   11.8070   -0.2660    0.0000 H   0  0  0  0  0  0  0  0  0  0  0  0
   12.2030   -0.9580    0.0000 H   0  0  0  0  0  0  0  0  0  0  0  0
    7.4130   -2.4710    0.0000 H   0  0  0  0  0  0  0  0  0  0  0  0
    6.9380   -3.2940    0.0000 H   0  0  0  0  0  0  0  0  0  0  0  0
    5.7230   -3.2940    0.0000 H   0  0  0  0  0  0  0  0  0  0  0  0
    5.2480   -2.4710    0.0000 H   0  0  0  0  0  0  0  0  0  0  0  0
    8.0830    1.8380    0.0000 H   0  0  0  0  0  0  0  0  0  0  0  0
    2.3290    0.8730    0.0000 H   0  0  0  0  0  0  0  0  0  0  0  0
    3.7320    3.3030    0.0000 H   0  0  0  0  0  0  0  0  0  0  0  0
    5.1350    2.4930    0.0000 H   0  0  0  0  0  0  0  0  0  0  0  0
    3.7320    0.0630    0.0000 H   0  0  0  0  0  0  0  0  0  0  0  0
  1 20  1  0  0  0  0
  2 17  2  0  0  0  0
  3 16  1  0  0  0  0
  3 11  1  0  0  0  0
  3 10  1  0  0  0  0
  4 13  1  0  0  0  0
  4 28  1  0  0  0  0
  4 12  1  0  0  0  0
  5 17  1  0  0  0  0
  5 18  1  0  0  0  0
  5  9  1  0  0  0  0
  6 18  2  0  0  0  0
  6 16  1  0  0  0  0
  7 19  2  0  0  0  0
  7 21  1  0  0  0  0
  8 16  2  0  0  0  0
  8 23  1  0  0  0  0
  9 14  1  0  0  0  0
  9 15  1  0  0  0  0
  9 29  1  0  0  0  0
 10 33  1  0  0  0  0
 10 32  1  0  0  0  0
 10 12  1  0  0  0  0
 11 13  1  0  0  0  0
 11 30  1  0  0  0  0
 11 31  1  0  0  0  0
 12 36  1  0  0  0  0
 12 37  1  0  0  0  0
 13 34  1  0  0  0  0
 13 35  1  0  0  0  0
 14 39  1  0  0  0  0
 14 38  1  0  0  0  0
 14 15  1  0  0  0  0
 15 40  1  0  0  0  0
 15 41  1  0  0  0  0
 17 19  1  0  0  0  0
 18 21  1  0  0  0  0
 19 22  1  0  0  0  0
 20 24  1  0  0  0  0
 20 25  2  0  0  0  0
 21 23  2  0  0  0  0
 22 27  1  0  0  0  0
 22 26  2  0  0  0  0
 23 42  1  0  0  0  0
 24 27  2  0  0  0  0
 24 44  1  0  0  0  0
 25 43  1  0  0  0  0
 25 26  1  0  0  0  0
 26 46  1  0  0  0  0
 27 45  1  0  0  0  0
M  END
$$$$
3235507
  MOE2005           2D

 43 46  0  0  0  0  0  0  0  0999 V2000
    3.6280    2.8930    0.0000 S   0  0  0  0  0  0  0  0  0  0  0  0
    2.0000   -3.1010    0.0000 F   0  0  0  0  0  0  0  0  0  0  0  0
    3.7320   -0.1010    0.0000 O   0  0  0  0  0  0  0  0  0  0  0  0
    8.9940   -0.1250    0.0000 N   0  0  0  0  0  0  0  0  0  0  0  0
    5.4640   -0.1010    0.0000 N   0  0  0  0  0  0  0  0  0  0  0  0
    7.2240   -0.1360    0.0000 N   0  0  0  0  0  0  0  0  0  0  0  0
    5.4640    1.8990    0.0000 N   0  0  0  0  0  0  0  0  0  0  0  0
    8.1300    1.4200    0.0000 N   0  0  0  0  0  0  0  0  0  0  0  0
    9.8620    0.3710    0.0000 C   0  0  0  0  0  0  0  0  0  0  0  0
    5.4640   -1.1010    0.0000 C   0  0  0  0  0  0  0  0  0  0  0  0
   10.7260   -0.1320    0.0000 C   0  0  0  0  0  0  0  0  0  0  0  0
    8.1300    0.3780    0.0000 C   0  0  0  0  0  0  0  0  0  0  0  0
    4.5980    0.3990    0.0000 C   0  0  0  0  0  0  0  0  0  0  0  0
    6.3300    0.3990    0.0000 C   0  0  0  0  0  0  0  0  0  0  0  0
    3.7320    1.8990    0.0000 C   0  0  0  0  0  0  0  0  0  0  0  0
    4.5980    1.3990    0.0000 C   0  0  0  0  0  0  0  0  0  0  0  0
    2.8660   -2.6010    0.0000 C   0  0  0  0  0  0  0  0  0  0  0  0
    6.3300    1.3990    0.0000 C   0  0  0  0  0  0  0  0  0  0  0  0
    4.5980   -1.6010    0.0000 C   0  0  0  0  0  0  0  0  0  0  0  0
    2.6490    3.1010    0.0000 C   0  0  0  0  0  0  0  0  0  0  0  0
    7.2240    1.9330    0.0000 C   0  0  0  0  0  0  0  0  0  0  0  0
    2.8190    1.4920    0.0000 C   0  0  0  0  0  0  0  0  0  0  0  0
    3.7320   -3.1010    0.0000 C   0  0  0  0  0  0  0  0  0  0  0  0
    2.8660   -1.6010    0.0000 C   0  0  0  0  0  0  0  0  0  0  0  0
    4.5980   -2.6010    0.0000 C   0  0  0  0  0  0  0  0  0  0  0  0
    3.7320   -1.1010    0.0000 C   0  0  0  0  0  0  0  0  0  0  0  0
    2.1490    2.2350    0.0000 C   0  0  0  0  0  0  0  0  0  0  0  0
    8.9920   -0.7450    0.0000 H   0  0  0  0  0  0  0  0  0  0  0  0
   10.2630    0.8450    0.0000 H   0  0  0  0  0  0  0  0  0  0  0  0
    9.4660    0.8480    0.0000 H   0  0  0  0  0  0  0  0  0  0  0  0
    5.6760   -1.6840    0.0000 H   0  0  0  0  0  0  0  0  0  0  0  0
    6.0750   -0.9940    0.0000 H   0  0  0  0  0  0  0  0  0  0  0  0
   11.2620   -0.4440    0.0000 H   0  0  0  0  0  0  0  0  0  0  0  0
   11.0380    0.4040    0.0000 H   0  0  0  0  0  0  0  0  0  0  0  0
   10.4140   -0.6680    0.0000 H   0  0  0  0  0  0  0  0  0  0  0  0
    2.3970    3.6680    0.0000 H   0  0  0  0  0  0  0  0  0  0  0  0
    7.2170    2.5530    0.0000 H   0  0  0  0  0  0  0  0  0  0  0  0
    2.6900    0.8860    0.0000 H   0  0  0  0  0  0  0  0  0  0  0  0
    2.3290   -1.2910    0.0000 H   0  0  0  0  0  0  0  0  0  0  0  0
    3.7320   -3.7210    0.0000 H   0  0  0  0  0  0  0  0  0  0  0  0
    3.7320   -0.4810    0.0000 H   0  0  0  0  0  0  0  0  0  0  0  0
    5.1350   -2.9110    0.0000 H   0  0  0  0  0  0  0  0  0  0  0  0
    1.5330    2.1700    0.0000 H   0  0  0  0  0  0  0  0  0  0  0  0
  1 15  1  0  0  0  0
  1 20  1  0  0  0  0
  2 17  1  0  0  0  0
  3 13  2  0  0  0  0
  4 12  1  0  0  0  0
  4 28  1  0  0  0  0
  4  9  1  0  0  0  0
  5 13  1  0  0  0  0
  5 14  1  0  0  0  0
  5 10  1  0  0  0  0
  6 14  2  0  0  0  0
  6 12  1  0  0  0  0
  7 16  2  0  0  0  0
  7 18  1  0  0  0  0
  8 12  2  0  0  0  0
  8 21  1  0  0  0  0
  9 11  1  0  0  0  0
  9 29  1  0  0  0  0
  9 30  1  0  0  0  0
 10 19  1  0  0  0  0
 10 31  1  0  0  0  0
 10 32  1  0  0  0  0
 11 33  1  0  0  0  0
 11 34  1  0  0  0  0
 11 35  1  0  0  0  0
 13 16  1  0  0  0  0
 14 18  1  0  0  0  0
 15 16  1  0  0  0  0
 15 22  2  0  0  0  0
 17 23  2  0  0  0  0
 17 24  1  0  0  0  0
 18 21  2  0  0  0  0
 19 25  2  0  0  0  0
 19 26  1  0  0  0  0
 20 36  1  0  0  0  0
 20 27  2  0  0  0  0
 21 37  1  0  0  0  0
 22 27  1  0  0  0  0
 22 38  1  0  0  0  0
 23 25  1  0  0  0  0
 23 40  1  0  0  0  0
 24 39  1  0  0  0  0
 24 26  2  0  0  0  0
 25 42  1  0  0  0  0
 26 41  1  0  0  0  0
 27 43  1  0  0  0  0
M  END
$$$$
3235535
  MOE2005           2D

 40 43  0  0  0  0  0  0  0  0999 V2000
    2.0000    2.6830    0.0000 Cl  0  0  0  0  0  0  0  0  0  0  0  0
    4.5980   -0.8170    0.0000 O   0  0  0  0  0  0  0  0  0  0  0  0
    9.8600   -0.8410    0.0000 N   0  0  0  0  0  0  0  0  0  0  0  0
    6.3300   -0.8170    0.0000 N   0  0  0  0  0  0  0  0  0  0  0  0
    8.0900   -0.8520    0.0000 N   0  0  0  0  0  0  0  0  0  0  0  0
    6.3300    1.1830    0.0000 N   0  0  0  0  0  0  0  0  0  0  0  0
    8.9960    0.7040    0.0000 N   0  0  0  0  0  0  0  0  0  0  0  0
   10.7280   -0.3450    0.0000 C   0  0  0  0  0  0  0  0  0  0  0  0
   11.5920   -0.8480    0.0000 C   0  0  0  0  0  0  0  0  0  0  0  0
    6.3300   -1.8170    0.0000 C   0  0  0  0  0  0  0  0  0  0  0  0
    5.8300   -2.6830    0.0000 C   0  0  0  0  0  0  0  0  0  0  0  0
    6.8300   -2.6830    0.0000 C   0  0  0  0  0  0  0  0  0  0  0  0
    8.9960   -0.3380    0.0000 C   0  0  0  0  0  0  0  0  0  0  0  0
    5.4640   -0.3170    0.0000 C   0  0  0  0  0  0  0  0  0  0  0  0
    7.1960   -0.3170    0.0000 C   0  0  0  0  0  0  0  0  0  0  0  0
    5.4640    0.6830    0.0000 C   0  0  0  0  0  0  0  0  0  0  0  0
    2.8660    2.1830    0.0000 C   0  0  0  0  0  0  0  0  0  0  0  0
    7.1960    0.6830    0.0000 C   0  0  0  0  0  0  0  0  0  0  0  0
    4.5980    1.1830    0.0000 C   0  0  0  0  0  0  0  0  0  0  0  0
    8.0900    1.2180    0.0000 C   0  0  0  0  0  0  0  0  0  0  0  0
    2.8660    1.1830    0.0000 C   0  0  0  0  0  0  0  0  0  0  0  0
    3.7320    2.6830    0.0000 C   0  0  0  0  0  0  0  0  0  0  0  0
    3.7320    0.6830    0.0000 C   0  0  0  0  0  0  0  0  0  0  0  0
    4.5980    2.1830    0.0000 C   0  0  0  0  0  0  0  0  0  0  0  0
    9.8580   -1.4610    0.0000 H   0  0  0  0  0  0  0  0  0  0  0  0
   11.1290    0.1290    0.0000 H   0  0  0  0  0  0  0  0  0  0  0  0
   10.3320    0.1320    0.0000 H   0  0  0  0  0  0  0  0  0  0  0  0
   12.1280   -1.1600    0.0000 H   0  0  0  0  0  0  0  0  0  0  0  0
   11.9040   -0.3120    0.0000 H   0  0  0  0  0  0  0  0  0  0  0  0
   11.2800   -1.3840    0.0000 H   0  0  0  0  0  0  0  0  0  0  0  0
    6.9290   -1.6570    0.0000 H   0  0  0  0  0  0  0  0  0  0  0  0
    5.2480   -2.4710    0.0000 H   0  0  0  0  0  0  0  0  0  0  0  0
    5.7230   -3.2940    0.0000 H   0  0  0  0  0  0  0  0  0  0  0  0
    6.9380   -3.2940    0.0000 H   0  0  0  0  0  0  0  0  0  0  0  0
    7.4130   -2.4710    0.0000 H   0  0  0  0  0  0  0  0  0  0  0  0
    8.0830    1.8380    0.0000 H   0  0  0  0  0  0  0  0  0  0  0  0
    3.7320    3.3030    0.0000 H   0  0  0  0  0  0  0  0  0  0  0  0
    2.3290    0.8730    0.0000 H   0  0  0  0  0  0  0  0  0  0  0  0
    5.1350    2.4930    0.0000 H   0  0  0  0  0  0  0  0  0  0  0  0
    3.7320    0.0630    0.0000 H   0  0  0  0  0  0  0  0  0  0  0  0
  1 17  1  0  0  0  0
  2 14  2  0  0  0  0
  3 13  1  0  0  0  0
  3 25  1  0  0  0  0
  3  8  1  0  0  0  0
  4 14  1  0  0  0  0
  4 15  1  0  0  0  0
  4 10  1  0  0  0  0
  5 15  2  0  0  0  0
  5 13  1  0  0  0  0
  6 16  2  0  0  0  0
  6 18  1  0  0  0  0
  7 13  2  0  0  0  0
  7 20  1  0  0  0  0
  8  9  1  0  0  0  0
  8 26  1  0  0  0  0
  8 27  1  0  0  0  0
  9 28  1  0  0  0  0
  9 29  1  0  0  0  0
  9 30  1  0  0  0  0
 10 11  1  0  0  0  0
 10 12  1  0  0  0  0
 10 31  1  0  0  0  0
 11 33  1  0  0  0  0
 11 32  1  0  0  0  0
 11 12  1  0  0  0  0
 12 34  1  0  0  0  0
 12 35  1  0  0  0  0
 14 16  1  0  0  0  0
 15 18  1  0  0  0  0
 16 19  1  0  0  0  0
 17 21  2  0  0  0  0
 17 22  1  0  0  0  0
 18 20  2  0  0  0  0
 19 23  2  0  0  0  0
 19 24  1  0  0  0  0
 20 36  1  0  0  0  0
 21 23  1  0  0  0  0
 21 38  1  0  0  0  0
 22 37  1  0  0  0  0
 22 24  2  0  0  0  0
 23 40  1  0  0  0  0
 24 39  1  0  0  0  0
M  END
$$$$
3235543
  MOE2005           2D

 52 55  0  0  0  0  0  0  0  0999 V2000
    2.8660   -4.0000    0.0000 F   0  0  0  0  0  0  0  0  0  0  0  0
    4.5980   -1.0000    0.0000 O   0  0  0  0  0  0  0  0  0  0  0  0
    9.8600   -1.0240    0.0000 N   0  0  0  0  0  0  0  0  0  0  0  0
    6.3300   -1.0000    0.0000 N   0  0  0  0  0  0  0  0  0  0  0  0
    8.0900   -1.0350    0.0000 N   0  0  0  0  0  0  0  0  0  0  0  0
    6.3300    1.0000    0.0000 N   0  0  0  0  0  0  0  0  0  0  0  0
    8.9960    0.5210    0.0000 N   0  0  0  0  0  0  0  0  0  0  0  0
    4.5980    1.0000    0.0000 C   0  0  0  0  0  0  0  0  0  0  0  0
    6.3300   -2.0000    0.0000 C   0  0  0  0  0  0  0  0  0  0  0  0
    4.5980    2.0000    0.0000 C   0  0  0  0  0  0  0  0  0  0  0  0
   10.7280   -0.5280    0.0000 C   0  0  0  0  0  0  0  0  0  0  0  0
    9.8560   -2.0240    0.0000 C   0  0  0  0  0  0  0  0  0  0  0  0
    8.9960   -0.5210    0.0000 C   0  0  0  0  0  0  0  0  0  0  0  0
    5.4640   -0.5000    0.0000 C   0  0  0  0  0  0  0  0  0  0  0  0
    7.1960   -0.5000    0.0000 C   0  0  0  0  0  0  0  0  0  0  0  0
    5.4640    0.5000    0.0000 C   0  0  0  0  0  0  0  0  0  0  0  0
    3.7320   -3.5000    0.0000 C   0  0  0  0  0  0  0  0  0  0  0  0
    7.1960    0.5000    0.0000 C   0  0  0  0  0  0  0  0  0  0  0  0
    5.4640   -2.5000    0.0000 C   0  0  0  0  0  0  0  0  0  0  0  0
    3.7320    2.5000    0.0000 C   0  0  0  0  0  0  0  0  0  0  0  0
    8.0900    1.0350    0.0000 C   0  0  0  0  0  0  0  0  0  0  0  0
    3.7320   -2.5000    0.0000 C   0  0  0  0  0  0  0  0  0  0  0  0
    4.5980   -4.0000    0.0000 C   0  0  0  0  0  0  0  0  0  0  0  0
    4.5980   -2.0000    0.0000 C   0  0  0  0  0  0  0  0  0  0  0  0
    5.4640   -3.5000    0.0000 C   0  0  0  0  0  0  0  0  0  0  0  0
    3.7320    3.5000    0.0000 C   0  0  0  0  0  0  0  0  0  0  0  0
    2.8660    2.0000    0.0000 C   0  0  0  0  0  0  0  0  0  0  0  0
    2.8660    4.0000    0.0000 C   0  0  0  0  0  0  0  0  0  0  0  0
    2.0000    2.5000    0.0000 C   0  0  0  0  0  0  0  0  0  0  0  0
    2.0000    3.5000    0.0000 C   0  0  0  0  0  0  0  0  0  0  0  0
    4.3860    0.4170    0.0000 H   0  0  0  0  0  0  0  0  0  0  0  0
    3.9880    1.1080    0.0000 H   0  0  0  0  0  0  0  0  0  0  0  0
    6.9410   -1.8920    0.0000 H   0  0  0  0  0  0  0  0  0  0  0  0
    6.5420   -2.5830    0.0000 H   0  0  0  0  0  0  0  0  0  0  0  0
    4.8100    2.5830    0.0000 H   0  0  0  0  0  0  0  0  0  0  0  0
    5.2090    1.8920    0.0000 H   0  0  0  0  0  0  0  0  0  0  0  0
   11.0360   -1.0660    0.0000 H   0  0  0  0  0  0  0  0  0  0  0  0
   11.2660   -0.2200    0.0000 H   0  0  0  0  0  0  0  0  0  0  0  0
   10.4200    0.0110    0.0000 H   0  0  0  0  0  0  0  0  0  0  0  0
    9.2360   -2.0220    0.0000 H   0  0  0  0  0  0  0  0  0  0  0  0
   10.4760   -2.0270    0.0000 H   0  0  0  0  0  0  0  0  0  0  0  0
    9.8540   -2.6440    0.0000 H   0  0  0  0  0  0  0  0  0  0  0  0
    8.0830    1.6550    0.0000 H   0  0  0  0  0  0  0  0  0  0  0  0
    3.1950   -2.1900    0.0000 H   0  0  0  0  0  0  0  0  0  0  0  0
    4.5980   -4.6200    0.0000 H   0  0  0  0  0  0  0  0  0  0  0  0
    4.5980   -1.3800    0.0000 H   0  0  0  0  0  0  0  0  0  0  0  0
    6.0010   -3.8100    0.0000 H   0  0  0  0  0  0  0  0  0  0  0  0
    4.2690    3.8100    0.0000 H   0  0  0  0  0  0  0  0  0  0  0  0
    2.8660    1.3800    0.0000 H   0  0  0  0  0  0  0  0  0  0  0  0
    2.8660    4.6200    0.0000 H   0  0  0  0  0  0  0  0  0  0  0  0
    1.4630    2.1900    0.0000 H   0  0  0  0  0  0  0  0  0  0  0  0
    1.4630    3.8100    0.0000 H   0  0  0  0  0  0  0  0  0  0  0  0
  1 17  1  0  0  0  0
  2 14  2  0  0  0  0
  3 13  1  0  0  0  0
  3 12  1  0  0  0  0
  3 11  1  0  0  0  0
  4  9  1  0  0  0  0
  4 14  1  0  0  0  0
  4 15  1  0  0  0  0
  5 13  2  0  0  0  0
  5 15  1  0  0  0  0
  6 16  2  0  0  0  0
  6 18  1  0  0  0  0
  7 21  2  0  0  0  0
  7 13  1  0  0  0  0
  8 16  1  0  0  0  0
  8 32  1  0  0  0  0
  8 31  1  0  0  0  0
  8 10  1  0  0  0  0
  9 19  1  0  0  0  0
  9 33  1  0  0  0  0
  9 34  1  0  0  0  0
 10 20  1  0  0  0  0
 10 35  1  0  0  0  0
 10 36  1  0  0  0  0
 11 37  1  0  0  0  0
 11 38  1  0  0  0  0
 11 39  1  0  0  0  0
 12 40  1  0  0  0  0
 12 41  1  0  0  0  0
 12 42  1  0  0  0  0
 14 16  1  0  0  0  0
 15 18  2  0  0  0  0
 17 22  2  0  0  0  0
 17 23  1  0  0  0  0
 18 21  1  0  0  0  0
 19 24  2  0  0  0  0
 19 25  1  0  0  0  0
 20 26  2  0  0  0  0
 20 27  1  0  0  0  0
 21 43  1  0  0  0  0
 22 24  1  0  0  0  0
 22 44  1  0  0  0  0
 23 45  1  0  0  0  0
 23 25  2  0  0  0  0
 24 46  1  0  0  0  0
 25 47  1  0  0  0  0
 26 28  1  0  0  0  0
 26 48  1  0  0  0  0
 27 49  1  0  0  0  0
 27 29  2  0  0  0  0
 28 30  2  0  0  0  0
 28 50  1  0  0  0  0
 29 30  1  0  0  0  0
 29 51  1  0  0  0  0
 30 52  1  0  0  0  0
M  END
$$$$
3235547
  MOE2005           2D

 49 52  0  0  0  0  0  0  0  0999 V2000
    2.0000    3.5000    0.0000 Cl  0  0  0  0  0  0  0  0  0  0  0  0
    4.5980    0.0000    0.0000 O   0  0  0  0  0  0  0  0  0  0  0  0
   11.5880   -1.0310    0.0000 N   0  0  0  0  0  0  0  0  0  0  0  0
    9.8600   -0.0240    0.0000 N   0  0  0  0  0  0  0  0  0  0  0  0
    6.3300    0.0000    0.0000 N   0  0  0  0  0  0  0  0  0  0  0  0
    8.0900   -0.0350    0.0000 N   0  0  0  0  0  0  0  0  0  0  0  0
    6.3300    2.0000    0.0000 N   0  0  0  0  0  0  0  0  0  0  0  0
    8.9960    1.5210    0.0000 N   0  0  0  0  0  0  0  0  0  0  0  0
    5.4640   -3.5000    0.0000 N   0  0  0  0  0  0  0  0  0  0  0  0
    6.3300   -1.0000    0.0000 C   0  0  0  0  0  0  0  0  0  0  0  0
    5.4640   -1.5000    0.0000 C   0  0  0  0  0  0  0  0  0  0  0  0
   12.4530   -1.5340    0.0000 C   0  0  0  0  0  0  0  0  0  0  0  0
   11.5920   -0.0310    0.0000 C   0  0  0  0  0  0  0  0  0  0  0  0
   10.7210   -1.5280    0.0000 C   0  0  0  0  0  0  0  0  0  0  0  0
   10.7280    0.4730    0.0000 C   0  0  0  0  0  0  0  0  0  0  0  0
    9.8560   -1.0240    0.0000 C   0  0  0  0  0  0  0  0  0  0  0  0
    8.9960    0.4790    0.0000 C   0  0  0  0  0  0  0  0  0  0  0  0
    5.4640    0.5000    0.0000 C   0  0  0  0  0  0  0  0  0  0  0  0
    7.1960    0.5000    0.0000 C   0  0  0  0  0  0  0  0  0  0  0  0
    5.4640    1.5000    0.0000 C   0  0  0  0  0  0  0  0  0  0  0  0
    2.8660    3.0000    0.0000 C   0  0  0  0  0  0  0  0  0  0  0  0
    7.1960    1.5000    0.0000 C   0  0  0  0  0  0  0  0  0  0  0  0
    4.5980    2.0000    0.0000 C   0  0  0  0  0  0  0  0  0  0  0  0
    8.0900    2.0350    0.0000 C   0  0  0  0  0  0  0  0  0  0  0  0
    2.8660    2.0000    0.0000 C   0  0  0  0  0  0  0  0  0  0  0  0
    3.7320    3.5000    0.0000 C   0  0  0  0  0  0  0  0  0  0  0  0
    3.7320    1.5000    0.0000 C   0  0  0  0  0  0  0  0  0  0  0  0
    4.5980    3.0000    0.0000 C   0  0  0  0  0  0  0  0  0  0  0  0
    5.4640   -2.5000    0.0000 C   0  0  0  0  0  0  0  0  0  0  0  0
    6.9410   -0.8920    0.0000 H   0  0  0  0  0  0  0  0  0  0  0  0
    6.5420   -1.5830    0.0000 H   0  0  0  0  0  0  0  0  0  0  0  0
    4.8540   -1.6080    0.0000 H   0  0  0  0  0  0  0  0  0  0  0  0
    5.2520   -0.9170    0.0000 H   0  0  0  0  0  0  0  0  0  0  0  0
   12.1410   -2.0700    0.0000 H   0  0  0  0  0  0  0  0  0  0  0  0
   12.9880   -1.8460    0.0000 H   0  0  0  0  0  0  0  0  0  0  0  0
   12.7650   -0.9980    0.0000 H   0  0  0  0  0  0  0  0  0  0  0  0
   12.2030   -0.1410    0.0000 H   0  0  0  0  0  0  0  0  0  0  0  0
   11.8070    0.5510    0.0000 H   0  0  0  0  0  0  0  0  0  0  0  0
   10.3200   -2.0010    0.0000 H   0  0  0  0  0  0  0  0  0  0  0  0
   11.1170   -2.0040    0.0000 H   0  0  0  0  0  0  0  0  0  0  0  0
   11.1290    0.9460    0.0000 H   0  0  0  0  0  0  0  0  0  0  0  0
   10.3320    0.9490    0.0000 H   0  0  0  0  0  0  0  0  0  0  0  0
    9.2460   -0.9140    0.0000 H   0  0  0  0  0  0  0  0  0  0  0  0
    9.6420   -1.6060    0.0000 H   0  0  0  0  0  0  0  0  0  0  0  0
    8.0830    2.6550    0.0000 H   0  0  0  0  0  0  0  0  0  0  0  0
    2.3290    1.6900    0.0000 H   0  0  0  0  0  0  0  0  0  0  0  0
    3.7320    4.1200    0.0000 H   0  0  0  0  0  0  0  0  0  0  0  0
    3.7320    0.8800    0.0000 H   0  0  0  0  0  0  0  0  0  0  0  0
    5.1350    3.3100    0.0000 H   0  0  0  0  0  0  0  0  0  0  0  0
  1 21  1  0  0  0  0
  2 18  2  0  0  0  0
  3 14  1  0  0  0  0
  3 13  1  0  0  0  0
  3 12  1  0  0  0  0
  4 17  1  0  0  0  0
  4 16  1  0  0  0  0
  4 15  1  0  0  0  0
  5 18  1  0  0  0  0
  5 19  1  0  0  0  0
  5 10  1  0  0  0  0
  6 19  2  0  0  0  0
  6 17  1  0  0  0  0
  7 20  2  0  0  0  0
  7 22  1  0  0  0  0
  8 17  2  0  0  0  0
  8 24  1  0  0  0  0
  9 29  3  0  0  0  0
 10 11  1  0  0  0  0
 10 30  1  0  0  0  0
 10 31  1  0  0  0  0
 11 29  1  0  0  0  0
 11 32  1  0  0  0  0
 11 33  1  0  0  0  0
 12 34  1  0  0  0  0
 12 35  1  0  0  0  0
 12 36  1  0  0  0  0
 13 38  1  0  0  0  0
 13 37  1  0  0  0  0
 13 15  1  0  0  0  0
 14 16  1  0  0  0  0
 14 39  1  0  0  0  0
 14 40  1  0  0  0  0
 15 41  1  0  0  0  0
 15 42  1  0  0  0  0
 16 43  1  0  0  0  0
 16 44  1  0  0  0  0
 18 20  1  0  0  0  0
 19 22  1  0  0  0  0
 20 23  1  0  0  0  0
 21 25  2  0  0  0  0
 21 26  1  0  0  0  0
 22 24  2  0  0  0  0
 23 27  2  0  0  0  0
 23 28  1  0  0  0  0
 24 45  1  0  0  0  0
 25 27  1  0  0  0  0
 25 46  1  0  0  0  0
 26 47  1  0  0  0  0
 26 28  2  0  0  0  0
 27 48  1  0  0  0  0
 28 49  1  0  0  0  0
M  END
$$$$
3235548
  MOE2005           2D

 52 55  0  0  0  0  0  0  0  0999 V2000
    3.7320    3.7500    0.0000 F   0  0  0  0  0  0  0  0  0  0  0  0
    2.0000    0.7500    0.0000 F   0  0  0  0  0  0  0  0  0  0  0  0
    5.4640   -3.2500    0.0000 O   0  0  0  0  0  0  0  0  0  0  0  0
    4.5980   -0.7500    0.0000 O   0  0  0  0  0  0  0  0  0  0  0  0
   11.5880   -1.7810    0.0000 N   0  0  0  0  0  0  0  0  0  0  0  0
    9.8600   -0.7740    0.0000 N   0  0  0  0  0  0  0  0  0  0  0  0
    6.3300   -0.7500    0.0000 N   0  0  0  0  0  0  0  0  0  0  0  0
    8.0900   -0.7850    0.0000 N   0  0  0  0  0  0  0  0  0  0  0  0
    6.3300    1.2500    0.0000 N   0  0  0  0  0  0  0  0  0  0  0  0
    8.9960    0.7710    0.0000 N   0  0  0  0  0  0  0  0  0  0  0  0
    5.4640   -2.2500    0.0000 C   0  0  0  0  0  0  0  0  0  0  0  0
    6.3300   -1.7500    0.0000 C   0  0  0  0  0  0  0  0  0  0  0  0
    4.5980   -3.7500    0.0000 C   0  0  0  0  0  0  0  0  0  0  0  0
   12.4530   -2.2840    0.0000 C   0  0  0  0  0  0  0  0  0  0  0  0
   11.5920   -0.7810    0.0000 C   0  0  0  0  0  0  0  0  0  0  0  0
   10.7210   -2.2780    0.0000 C   0  0  0  0  0  0  0  0  0  0  0  0
   10.7280   -0.2780    0.0000 C   0  0  0  0  0  0  0  0  0  0  0  0
    9.8560   -1.7740    0.0000 C   0  0  0  0  0  0  0  0  0  0  0  0
    8.9960   -0.2710    0.0000 C   0  0  0  0  0  0  0  0  0  0  0  0
    5.4640   -0.2500    0.0000 C   0  0  0  0  0  0  0  0  0  0  0  0
    7.1960   -0.2500    0.0000 C   0  0  0  0  0  0  0  0  0  0  0  0
    5.4640    0.7500    0.0000 C   0  0  0  0  0  0  0  0  0  0  0  0
    3.7320    2.7500    0.0000 C   0  0  0  0  0  0  0  0  0  0  0  0
    2.8660    1.2500    0.0000 C   0  0  0  0  0  0  0  0  0  0  0  0
    7.1960    0.7500    0.0000 C   0  0  0  0  0  0  0  0  0  0  0  0
    4.5980    1.2500    0.0000 C   0  0  0  0  0  0  0  0  0  0  0  0
    8.0900    1.2850    0.0000 C   0  0  0  0  0  0  0  0  0  0  0  0
    2.8660    2.2500    0.0000 C   0  0  0  0  0  0  0  0  0  0  0  0
    4.5980    2.2500    0.0000 C   0  0  0  0  0  0  0  0  0  0  0  0
    3.7320    0.7500    0.0000 C   0  0  0  0  0  0  0  0  0  0  0  0
    4.8540   -2.3580    0.0000 H   0  0  0  0  0  0  0  0  0  0  0  0
    5.2520   -1.6670    0.0000 H   0  0  0  0  0  0  0  0  0  0  0  0
    6.9410   -1.6420    0.0000 H   0  0  0  0  0  0  0  0  0  0  0  0
    6.5420   -2.3330    0.0000 H   0  0  0  0  0  0  0  0  0  0  0  0
    4.2880   -3.2130    0.0000 H   0  0  0  0  0  0  0  0  0  0  0  0
    4.0610   -4.0600    0.0000 H   0  0  0  0  0  0  0  0  0  0  0  0
    4.9080   -4.2870    0.0000 H   0  0  0  0  0  0  0  0  0  0  0  0
   12.1410   -2.8200    0.0000 H   0  0  0  0  0  0  0  0  0  0  0  0
   12.9880   -2.5960    0.0000 H   0  0  0  0  0  0  0  0  0  0  0  0
   12.7650   -1.7480    0.0000 H   0  0  0  0  0  0  0  0  0  0  0  0
   12.2030   -0.8910    0.0000 H   0  0  0  0  0  0  0  0  0  0  0  0
   11.8070   -0.1990    0.0000 H   0  0  0  0  0  0  0  0  0  0  0  0
   10.3200   -2.7510    0.0000 H   0  0  0  0  0  0  0  0  0  0  0  0
   11.1170   -2.7540    0.0000 H   0  0  0  0  0  0  0  0  0  0  0  0
   11.1290    0.1960    0.0000 H   0  0  0  0  0  0  0  0  0  0  0  0
   10.3320    0.1990    0.0000 H   0  0  0  0  0  0  0  0  0  0  0  0
    9.2460   -1.6640    0.0000 H   0  0  0  0  0  0  0  0  0  0  0  0
    9.6420   -2.3560    0.0000 H   0  0  0  0  0  0  0  0  0  0  0  0
    8.0830    1.9050    0.0000 H   0  0  0  0  0  0  0  0  0  0  0  0
    2.3290    2.5600    0.0000 H   0  0  0  0  0  0  0  0  0  0  0  0
    5.1350    2.5600    0.0000 H   0  0  0  0  0  0  0  0  0  0  0  0
    3.7320    0.1300    0.0000 H   0  0  0  0  0  0  0  0  0  0  0  0
  1 23  1  0  0  0  0
  2 24  1  0  0  0  0
  3 11  1  0  0  0  0
  3 13  1  0  0  0  0
  4 20  2  0  0  0  0
  5 16  1  0  0  0  0
  5 15  1  0  0  0  0
  5 14  1  0  0  0  0
  6 19  1  0  0  0  0
  6 18  1  0  0  0  0
  6 17  1  0  0  0  0
  7 20  1  0  0  0  0
  7 21  1  0  0  0  0
  7 12  1  0  0  0  0
  8 21  2  0  0  0  0
  8 19  1  0  0  0  0
  9 22  2  0  0  0  0
  9 25  1  0  0  0  0
 10 19  2  0  0  0  0
 10 27  1  0  0  0  0
 11 12  1  0  0  0  0
 11 31  1  0  0  0  0
 11 32  1  0  0  0  0
 12 33  1  0  0  0  0
 12 34  1  0  0  0  0
 13 35  1  0  0  0  0
 13 36  1  0  0  0  0
 13 37  1  0  0  0  0
 14 38  1  0  0  0  0
 14 39  1  0  0  0  0
 14 40  1  0  0  0  0
 15 42  1  0  0  0  0
 15 41  1  0  0  0  0
 15 17  1  0  0  0  0
 16 18  1  0  0  0  0
 16 43  1  0  0  0  0
 16 44  1  0  0  0  0
 17 45  1  0  0  0  0
 17 46  1  0  0  0  0
 18 47  1  0  0  0  0
 18 48  1  0  0  0  0
 20 22  1  0  0  0  0
 21 25  1  0  0  0  0
 22 26  1  0  0  0  0
 23 28  2  0  0  0  0
 23 29  1  0  0  0  0
 24 28  1  0  0  0  0
 24 30  2  0  0  0  0
 25 27  2  0  0  0  0
 26 30  1  0  0  0  0
 26 29  2  0  0  0  0
 27 49  1  0  0  0  0
 28 50  1  0  0  0  0
 29 51  1  0  0  0  0
 30 52  1  0  0  0  0
M  END
$$$$
3235550
  MOE2005           2D

 49 53  0  0  0  0  0  0  0  0999 V2000
    4.3440   -2.7450    0.0000 S   0  0  0  0  0  0  0  0  0  0  0  0
    3.4780    2.7450    0.0000 S   0  0  0  0  0  0  0  0  0  0  0  0
    3.5830   -0.2500    0.0000 O   0  0  0  0  0  0  0  0  0  0  0  0
   10.5730   -1.2810    0.0000 N   0  0  0  0  0  0  0  0  0  0  0  0
    8.8450   -0.2740    0.0000 N   0  0  0  0  0  0  0  0  0  0  0  0
    5.3150   -0.2500    0.0000 N   0  0  0  0  0  0  0  0  0  0  0  0
    7.0750   -0.2850    0.0000 N   0  0  0  0  0  0  0  0  0  0  0  0
    5.3150    1.7500    0.0000 N   0  0  0  0  0  0  0  0  0  0  0  0
    7.9810    1.2710    0.0000 N   0  0  0  0  0  0  0  0  0  0  0  0
    5.3150   -1.2500    0.0000 C   0  0  0  0  0  0  0  0  0  0  0  0
   11.4370   -1.7840    0.0000 C   0  0  0  0  0  0  0  0  0  0  0  0
   10.5770   -0.2810    0.0000 C   0  0  0  0  0  0  0  0  0  0  0  0
    9.7050   -1.7780    0.0000 C   0  0  0  0  0  0  0  0  0  0  0  0
    8.8410   -1.2740    0.0000 C   0  0  0  0  0  0  0  0  0  0  0  0
    9.7130    0.2230    0.0000 C   0  0  0  0  0  0  0  0  0  0  0  0
    7.9810    0.2290    0.0000 C   0  0  0  0  0  0  0  0  0  0  0  0
    4.4490    0.2500    0.0000 C   0  0  0  0  0  0  0  0  0  0  0  0
    6.1810    0.2500    0.0000 C   0  0  0  0  0  0  0  0  0  0  0  0
    4.4490   -1.7500    0.0000 C   0  0  0  0  0  0  0  0  0  0  0  0
    3.5830    1.7500    0.0000 C   0  0  0  0  0  0  0  0  0  0  0  0
    4.4490    1.2500    0.0000 C   0  0  0  0  0  0  0  0  0  0  0  0
    6.1810    1.2500    0.0000 C   0  0  0  0  0  0  0  0  0  0  0  0
    3.3660   -2.9520    0.0000 C   0  0  0  0  0  0  0  0  0  0  0  0
    2.5000    2.9520    0.0000 C   0  0  0  0  0  0  0  0  0  0  0  0
    7.0750    1.7850    0.0000 C   0  0  0  0  0  0  0  0  0  0  0  0
    3.5350   -1.3430    0.0000 C   0  0  0  0  0  0  0  0  0  0  0  0
    2.6690    1.3430    0.0000 C   0  0  0  0  0  0  0  0  0  0  0  0
    2.8660   -2.0860    0.0000 C   0  0  0  0  0  0  0  0  0  0  0  0
    2.0000    2.0860    0.0000 C   0  0  0  0  0  0  0  0  0  0  0  0
    5.9250   -1.1420    0.0000 H   0  0  0  0  0  0  0  0  0  0  0  0
    5.5270   -1.8330    0.0000 H   0  0  0  0  0  0  0  0  0  0  0  0
   11.1250   -2.3200    0.0000 H   0  0  0  0  0  0  0  0  0  0  0  0
   11.9730   -2.0960    0.0000 H   0  0  0  0  0  0  0  0  0  0  0  0
   11.7490   -1.2480    0.0000 H   0  0  0  0  0  0  0  0  0  0  0  0
   11.1870   -0.3910    0.0000 H   0  0  0  0  0  0  0  0  0  0  0  0
   10.7910    0.3010    0.0000 H   0  0  0  0  0  0  0  0  0  0  0  0
    9.3050   -2.2510    0.0000 H   0  0  0  0  0  0  0  0  0  0  0  0
   10.1020   -2.2540    0.0000 H   0  0  0  0  0  0  0  0  0  0  0  0
   10.1130    0.6960    0.0000 H   0  0  0  0  0  0  0  0  0  0  0  0
    9.3160    0.6990    0.0000 H   0  0  0  0  0  0  0  0  0  0  0  0
    8.2310   -1.1640    0.0000 H   0  0  0  0  0  0  0  0  0  0  0  0
    8.6270   -1.8560    0.0000 H   0  0  0  0  0  0  0  0  0  0  0  0
    3.1140   -3.5190    0.0000 H   0  0  0  0  0  0  0  0  0  0  0  0
    2.2480    3.5190    0.0000 H   0  0  0  0  0  0  0  0  0  0  0  0
    7.0680    2.4050    0.0000 H   0  0  0  0  0  0  0  0  0  0  0  0
    3.4060   -0.7370    0.0000 H   0  0  0  0  0  0  0  0  0  0  0  0
    2.5400    0.7370    0.0000 H   0  0  0  0  0  0  0  0  0  0  0  0
    2.2490   -2.0220    0.0000 H   0  0  0  0  0  0  0  0  0  0  0  0
    1.3830    2.0220    0.0000 H   0  0  0  0  0  0  0  0  0  0  0  0
  1 19  1  0  0  0  0
  1 23  1  0  0  0  0
  2 20  1  0  0  0  0
  2 24  1  0  0  0  0
  3 17  2  0  0  0  0
  4 12  1  0  0  0  0
  4 13  1  0  0  0  0
  4 11  1  0  0  0  0
  5 16  1  0  0  0  0
  5 15  1  0  0  0  0
  5 14  1  0  0  0  0
  6 10  1  0  0  0  0
  6 17  1  0  0  0  0
  6 18  1  0  0  0  0
  7 16  1  0  0  0  0
  7 18  2  0  0  0  0
  8 21  2  0  0  0  0
  8 22  1  0  0  0  0
  9 25  1  0  0  0  0
  9 16  2  0  0  0  0
 10 19  1  0  0  0  0
 10 30  1  0  0  0  0
 10 31  1  0  0  0  0
 11 32  1  0  0  0  0
 11 33  1  0  0  0  0
 11 34  1  0  0  0  0
 12 15  1  0  0  0  0
 12 35  1  0  0  0  0
 12 36  1  0  0  0  0
 13 38  1  0  0  0  0
 13 37  1  0  0  0  0
 13 14  1  0  0  0  0
 14 41  1  0  0  0  0
 14 42  1  0  0  0  0
 15 39  1  0  0  0  0
 15 40  1  0  0  0  0
 17 21  1  0  0  0  0
 18 22  1  0  0  0  0
 19 26  2  0  0  0  0
 20 21  1  0  0  0  0
 20 27  2  0  0  0  0
 22 25  2  0  0  0  0
 23 43  1  0  0  0  0
 23 28  2  0  0  0  0
 24 29  2  0  0  0  0
 24 44  1  0  0  0  0
 25 45  1  0  0  0  0
 26 28  1  0  0  0  0
 26 46  1  0  0  0  0
 27 29  1  0  0  0  0
 27 47  1  0  0  0  0
 28 48  1  0  0  0  0
 29 49  1  0  0  0  0
M  END
$$$$
3235561
  MOE2005           2D

 53 56  0  0  0  0  0  0  0  0999 V2000
    2.0000    3.0000    0.0000 O   0  0  0  0  0  0  0  0  0  0  0  0
    4.5980   -0.5000    0.0000 O   0  0  0  0  0  0  0  0  0  0  0  0
   11.5880   -1.5310    0.0000 N   0  0  0  0  0  0  0  0  0  0  0  0
    9.8600   -0.5240    0.0000 N   0  0  0  0  0  0  0  0  0  0  0  0
    6.3300   -0.5000    0.0000 N   0  0  0  0  0  0  0  0  0  0  0  0
    8.0900   -0.5350    0.0000 N   0  0  0  0  0  0  0  0  0  0  0  0
    6.3300    1.5000    0.0000 N   0  0  0  0  0  0  0  0  0  0  0  0
    8.9960    1.0210    0.0000 N   0  0  0  0  0  0  0  0  0  0  0  0
    5.4640   -4.0000    0.0000 N   0  0  0  0  0  0  0  0  0  0  0  0
    6.3300   -1.5000    0.0000 C   0  0  0  0  0  0  0  0  0  0  0  0
    5.4640   -2.0000    0.0000 C   0  0  0  0  0  0  0  0  0  0  0  0
    2.0000    4.0000    0.0000 C   0  0  0  0  0  0  0  0  0  0  0  0
   12.4530   -2.0340    0.0000 C   0  0  0  0  0  0  0  0  0  0  0  0
   11.5920   -0.5310    0.0000 C   0  0  0  0  0  0  0  0  0  0  0  0
   10.7210   -2.0270    0.0000 C   0  0  0  0  0  0  0  0  0  0  0  0
   10.7280   -0.0280    0.0000 C   0  0  0  0  0  0  0  0  0  0  0  0
    9.8560   -1.5240    0.0000 C   0  0  0  0  0  0  0  0  0  0  0  0
    8.9960   -0.0210    0.0000 C   0  0  0  0  0  0  0  0  0  0  0  0
    5.4640    0.0000    0.0000 C   0  0  0  0  0  0  0  0  0  0  0  0
    7.1960    0.0000    0.0000 C   0  0  0  0  0  0  0  0  0  0  0  0
    5.4640    1.0000    0.0000 C   0  0  0  0  0  0  0  0  0  0  0  0
    2.8660    2.5000    0.0000 C   0  0  0  0  0  0  0  0  0  0  0  0
    7.1960    1.0000    0.0000 C   0  0  0  0  0  0  0  0  0  0  0  0
    4.5980    1.5000    0.0000 C   0  0  0  0  0  0  0  0  0  0  0  0
    8.0900    1.5350    0.0000 C   0  0  0  0  0  0  0  0  0  0  0  0
    2.8660    1.5000    0.0000 C   0  0  0  0  0  0  0  0  0  0  0  0
    3.7320    3.0000    0.0000 C   0  0  0  0  0  0  0  0  0  0  0  0
    3.7320    1.0000    0.0000 C   0  0  0  0  0  0  0  0  0  0  0  0
    4.5980    2.5000    0.0000 C   0  0  0  0  0  0  0  0  0  0  0  0
    5.4640   -3.0000    0.0000 C   0  0  0  0  0  0  0  0  0  0  0  0
    6.9410   -1.3920    0.0000 H   0  0  0  0  0  0  0  0  0  0  0  0
    6.5420   -2.0830    0.0000 H   0  0  0  0  0  0  0  0  0  0  0  0
    4.8540   -2.1080    0.0000 H   0  0  0  0  0  0  0  0  0  0  0  0
    5.2520   -1.4170    0.0000 H   0  0  0  0  0  0  0  0  0  0  0  0
    2.6200    4.0000    0.0000 H   0  0  0  0  0  0  0  0  0  0  0  0
    2.0000    4.6200    0.0000 H   0  0  0  0  0  0  0  0  0  0  0  0
    1.3800    4.0000    0.0000 H   0  0  0  0  0  0  0  0  0  0  0  0
   12.1410   -2.5700    0.0000 H   0  0  0  0  0  0  0  0  0  0  0  0
   12.9880   -2.3460    0.0000 H   0  0  0  0  0  0  0  0  0  0  0  0
   12.7650   -1.4980    0.0000 H   0  0  0  0  0  0  0  0  0  0  0  0
   12.2030   -0.6410    0.0000 H   0  0  0  0  0  0  0  0  0  0  0  0
   11.8070    0.0510    0.0000 H   0  0  0  0  0  0  0  0  0  0  0  0
   10.3200   -2.5010    0.0000 H   0  0  0  0  0  0  0  0  0  0  0  0
   11.1170   -2.5040    0.0000 H   0  0  0  0  0  0  0  0  0  0  0  0
   11.1290    0.4460    0.0000 H   0  0  0  0  0  0  0  0  0  0  0  0
   10.3320    0.4490    0.0000 H   0  0  0  0  0  0  0  0  0  0  0  0
    9.2460   -1.4140    0.0000 H   0  0  0  0  0  0  0  0  0  0  0  0
    9.6420   -2.1060    0.0000 H   0  0  0  0  0  0  0  0  0  0  0  0
    8.0830    2.1550    0.0000 H   0  0  0  0  0  0  0  0  0  0  0  0
    2.3290    1.1900    0.0000 H   0  0  0  0  0  0  0  0  0  0  0  0
    3.7320    3.6200    0.0000 H   0  0  0  0  0  0  0  0  0  0  0  0
    3.7320    0.3800    0.0000 H   0  0  0  0  0  0  0  0  0  0  0  0
    5.1350    2.8100    0.0000 H   0  0  0  0  0  0  0  0  0  0  0  0
  1 12  1  0  0  0  0
  1 22  1  0  0  0  0
  2 19  2  0  0  0  0
  3 15  1  0  0  0  0
  3 14  1  0  0  0  0
  3 13  1  0  0  0  0
  4 18  1  0  0  0  0
  4 17  1  0  0  0  0
  4 16  1  0  0  0  0
  5 19  1  0  0  0  0
  5 20  1  0  0  0  0
  5 10  1  0  0  0  0
  6 20  2  0  0  0  0
  6 18  1  0  0  0  0
  7 21  2  0  0  0  0
  7 23  1  0  0  0  0
  8 18  2  0  0  0  0
  8 25  1  0  0  0  0
  9 30  3  0  0  0  0
 10 11  1  0  0  0  0
 10 31  1  0  0  0  0
 10 32  1  0  0  0  0
 11 30  1  0  0  0  0
 11 33  1  0  0  0  0
 11 34  1  0  0  0  0
 12 35  1  0  0  0  0
 12 36  1  0  0  0  0
 12 37  1  0  0  0  0
 13 38  1  0  0  0  0
 13 39  1  0  0  0  0
 13 40  1  0  0  0  0
 14 42  1  0  0  0  0
 14 41  1  0  0  0  0
 14 16  1  0  0  0  0
 15 17  1  0  0  0  0
 15 43  1  0  0  0  0
 15 44  1  0  0  0  0
 16 45  1  0  0  0  0
 16 46  1  0  0  0  0
 17 47  1  0  0  0  0
 17 48  1  0  0  0  0
 19 21  1  0  0  0  0
 20 23  1  0  0  0  0
 21 24  1  0  0  0  0
 22 26  2  0  0  0  0
 22 27  1  0  0  0  0
 23 25  2  0  0  0  0
 24 28  2  0  0  0  0
 24 29  1  0  0  0  0
 25 49  1  0  0  0  0
 26 28  1  0  0  0  0
 26 50  1  0  0  0  0
 27 51  1  0  0  0  0
 27 29  2  0  0  0  0
 28 52  1  0  0  0  0
 29 53  1  0  0  0  0
M  END
$$$$
3235568
  MOE2005           2D

 46 49  0  0  0  0  0  0  0  0999 V2000
    2.0000    3.2500    0.0000 Cl  0  0  0  0  0  0  0  0  0  0  0  0
    2.8660   -3.2500    0.0000 F   0  0  0  0  0  0  0  0  0  0  0  0
    4.5980   -0.2500    0.0000 O   0  0  0  0  0  0  0  0  0  0  0  0
    9.8600   -0.2740    0.0000 N   0  0  0  0  0  0  0  0  0  0  0  0
    6.3300   -0.2500    0.0000 N   0  0  0  0  0  0  0  0  0  0  0  0
    8.0900   -0.2850    0.0000 N   0  0  0  0  0  0  0  0  0  0  0  0
    6.3300    1.7500    0.0000 N   0  0  0  0  0  0  0  0  0  0  0  0
    8.9960    1.2710    0.0000 N   0  0  0  0  0  0  0  0  0  0  0  0
    6.3300   -1.2500    0.0000 C   0  0  0  0  0  0  0  0  0  0  0  0
   10.7280    0.2230    0.0000 C   0  0  0  0  0  0  0  0  0  0  0  0
    9.8560   -1.2740    0.0000 C   0  0  0  0  0  0  0  0  0  0  0  0
    8.9960    0.2290    0.0000 C   0  0  0  0  0  0  0  0  0  0  0  0
    5.4640    0.2500    0.0000 C   0  0  0  0  0  0  0  0  0  0  0  0
    7.1960    0.2500    0.0000 C   0  0  0  0  0  0  0  0  0  0  0  0
    5.4640    1.2500    0.0000 C   0  0  0  0  0  0  0  0  0  0  0  0
    2.8660    2.7500    0.0000 C   0  0  0  0  0  0  0  0  0  0  0  0
    3.7320   -2.7500    0.0000 C   0  0  0  0  0  0  0  0  0  0  0  0
    7.1960    1.2500    0.0000 C   0  0  0  0  0  0  0  0  0  0  0  0
    5.4640   -1.7500    0.0000 C   0  0  0  0  0  0  0  0  0  0  0  0
    4.5980    1.7500    0.0000 C   0  0  0  0  0  0  0  0  0  0  0  0
    8.0900    1.7850    0.0000 C   0  0  0  0  0  0  0  0  0  0  0  0
    3.7320    3.2500    0.0000 C   0  0  0  0  0  0  0  0  0  0  0  0
    2.8660    1.7500    0.0000 C   0  0  0  0  0  0  0  0  0  0  0  0
    4.5980   -3.2500    0.0000 C   0  0  0  0  0  0  0  0  0  0  0  0
    3.7320   -1.7500    0.0000 C   0  0  0  0  0  0  0  0  0  0  0  0
    5.4640   -2.7500    0.0000 C   0  0  0  0  0  0  0  0  0  0  0  0
    4.5980   -1.2500    0.0000 C   0  0  0  0  0  0  0  0  0  0  0  0
    3.7320    1.2500    0.0000 C   0  0  0  0  0  0  0  0  0  0  0  0
    4.5980    2.7500    0.0000 C   0  0  0  0  0  0  0  0  0  0  0  0
    6.9410   -1.1420    0.0000 H   0  0  0  0  0  0  0  0  0  0  0  0
    6.5420   -1.8330    0.0000 H   0  0  0  0  0  0  0  0  0  0  0  0
   10.4200    0.7610    0.0000 H   0  0  0  0  0  0  0  0  0  0  0  0
    9.2360   -1.2720    0.0000 H   0  0  0  0  0  0  0  0  0  0  0  0
    9.8540   -1.8940    0.0000 H   0  0  0  0  0  0  0  0  0  0  0  0
   10.4760   -1.2770    0.0000 H   0  0  0  0  0  0  0  0  0  0  0  0
   11.2660    0.5300    0.0000 H   0  0  0  0  0  0  0  0  0  0  0  0
   11.0360   -0.3160    0.0000 H   0  0  0  0  0  0  0  0  0  0  0  0
    8.0830    2.4050    0.0000 H   0  0  0  0  0  0  0  0  0  0  0  0
    3.7320    3.8700    0.0000 H   0  0  0  0  0  0  0  0  0  0  0  0
    2.3290    1.4400    0.0000 H   0  0  0  0  0  0  0  0  0  0  0  0
    3.1950   -1.4400    0.0000 H   0  0  0  0  0  0  0  0  0  0  0  0
    4.5980   -3.8700    0.0000 H   0  0  0  0  0  0  0  0  0  0  0  0
    4.5980   -0.6300    0.0000 H   0  0  0  0  0  0  0  0  0  0  0  0
    6.0010   -3.0600    0.0000 H   0  0  0  0  0  0  0  0  0  0  0  0
    5.1350    3.0600    0.0000 H   0  0  0  0  0  0  0  0  0  0  0  0
    3.7320    0.6300    0.0000 H   0  0  0  0  0  0  0  0  0  0  0  0
  1 16  1  0  0  0  0
  2 17  1  0  0  0  0
  3 13  2  0  0  0  0
  4 12  1  0  0  0  0
  4 11  1  0  0  0  0
  4 10  1  0  0  0  0
  5 13  1  0  0  0  0
  5 14  1  0  0  0  0
  5  9  1  0  0  0  0
  6 14  2  0  0  0  0
  6 12  1  0  0  0  0
  7 15  2  0  0  0  0
  7 18  1  0  0  0  0
  8 12  2  0  0  0  0
  8 21  1  0  0  0  0
  9 19  1  0  0  0  0
  9 30  1  0  0  0  0
  9 31  1  0  0  0  0
 10 32  1  0  0  0  0
 10 36  1  0  0  0  0
 10 37  1  0  0  0  0
 11 33  1  0  0  0  0
 11 34  1  0  0  0  0
 11 35  1  0  0  0  0
 13 15  1  0  0  0  0
 14 18  1  0  0  0  0
 15 20  1  0  0  0  0
 16 22  1  0  0  0  0
 16 23  2  0  0  0  0
 17 24  2  0  0  0  0
 17 25  1  0  0  0  0
 18 21  2  0  0  0  0
 19 26  2  0  0  0  0
 19 27  1  0  0  0  0
 20 29  1  0  0  0  0
 20 28  2  0  0  0  0
 21 38  1  0  0  0  0
 22 29  2  0  0  0  0
 22 39  1  0  0  0  0
 23 40  1  0  0  0  0
 23 28  1  0  0  0  0
 24 26  1  0  0  0  0
 24 42  1  0  0  0  0
 25 41  1  0  0  0  0
 25 27  2  0  0  0  0
 26 44  1  0  0  0  0
 27 43  1  0  0  0  0
 28 46  1  0  0  0  0
 29 45  1  0  0  0  0
M  END
$$$$
3235571
  MOE2005           2D

 40 42  0  0  0  0  0  0  0  0999 V2000
    2.0000    3.5000    0.0000 F   0  0  0  0  0  0  0  0  0  0  0  0
    4.5980    0.0000    0.0000 O   0  0  0  0  0  0  0  0  0  0  0  0
    9.8600   -0.0240    0.0000 N   0  0  0  0  0  0  0  0  0  0  0  0
    6.3300    0.0000    0.0000 N   0  0  0  0  0  0  0  0  0  0  0  0
    8.0900   -0.0350    0.0000 N   0  0  0  0  0  0  0  0  0  0  0  0
    6.3300    2.0000    0.0000 N   0  0  0  0  0  0  0  0  0  0  0  0
    8.9960    1.5210    0.0000 N   0  0  0  0  0  0  0  0  0  0  0  0
    5.4640   -3.5000    0.0000 N   0  0  0  0  0  0  0  0  0  0  0  0
    6.3300   -1.0000    0.0000 C   0  0  0  0  0  0  0  0  0  0  0  0
    5.4640   -1.5000    0.0000 C   0  0  0  0  0  0  0  0  0  0  0  0
   10.7280    0.4730    0.0000 C   0  0  0  0  0  0  0  0  0  0  0  0
    9.8560   -1.0240    0.0000 C   0  0  0  0  0  0  0  0  0  0  0  0
    8.9960    0.4790    0.0000 C   0  0  0  0  0  0  0  0  0  0  0  0
    5.4640    0.5000    0.0000 C   0  0  0  0  0  0  0  0  0  0  0  0
    7.1960    0.5000    0.0000 C   0  0  0  0  0  0  0  0  0  0  0  0
    5.4640    1.5000    0.0000 C   0  0  0  0  0  0  0  0  0  0  0  0
    2.8660    3.0000    0.0000 C   0  0  0  0  0  0  0  0  0  0  0  0
    7.1960    1.5000    0.0000 C   0  0  0  0  0  0  0  0  0  0  0  0
    4.5980    2.0000    0.0000 C   0  0  0  0  0  0  0  0  0  0  0  0
    8.0900    2.0350    0.0000 C   0  0  0  0  0  0  0  0  0  0  0  0
    2.8660    2.0000    0.0000 C   0  0  0  0  0  0  0  0  0  0  0  0
    3.7320    3.5000    0.0000 C   0  0  0  0  0  0  0  0  0  0  0  0
    3.7320    1.5000    0.0000 C   0  0  0  0  0  0  0  0  0  0  0  0
    4.5980    3.0000    0.0000 C   0  0  0  0  0  0  0  0  0  0  0  0
    5.4640   -2.5000    0.0000 C   0  0  0  0  0  0  0  0  0  0  0  0
    6.9410   -0.8920    0.0000 H   0  0  0  0  0  0  0  0  0  0  0  0
    6.5420   -1.5830    0.0000 H   0  0  0  0  0  0  0  0  0  0  0  0
    5.2520   -0.9170    0.0000 H   0  0  0  0  0  0  0  0  0  0  0  0
    4.8540   -1.6080    0.0000 H   0  0  0  0  0  0  0  0  0  0  0  0
   10.4200    1.0110    0.0000 H   0  0  0  0  0  0  0  0  0  0  0  0
    9.2360   -1.0220    0.0000 H   0  0  0  0  0  0  0  0  0  0  0  0
    9.8540   -1.6440    0.0000 H   0  0  0  0  0  0  0  0  0  0  0  0
   10.4760   -1.0270    0.0000 H   0  0  0  0  0  0  0  0  0  0  0  0
   11.2660    0.7800    0.0000 H   0  0  0  0  0  0  0  0  0  0  0  0
   11.0360   -0.0660    0.0000 H   0  0  0  0  0  0  0  0  0  0  0  0
    8.0830    2.6550    0.0000 H   0  0  0  0  0  0  0  0  0  0  0  0
    3.7320    4.1200    0.0000 H   0  0  0  0  0  0  0  0  0  0  0  0
    2.3290    1.6900    0.0000 H   0  0  0  0  0  0  0  0  0  0  0  0
    5.1350    3.3100    0.0000 H   0  0  0  0  0  0  0  0  0  0  0  0
    3.7320    0.8800    0.0000 H   0  0  0  0  0  0  0  0  0  0  0  0
  1 17  1  0  0  0  0
  2 14  2  0  0  0  0
  3 13  1  0  0  0  0
  3 12  1  0  0  0  0
  3 11  1  0  0  0  0
  4 14  1  0  0  0  0
  4 15  1  0  0  0  0
  4  9  1  0  0  0  0
  5 15  2  0  0  0  0
  5 13  1  0  0  0  0
  6 16  2  0  0  0  0
  6 18  1  0  0  0  0
  7 13  2  0  0  0  0
  7 20  1  0  0  0  0
  8 25  3  0  0  0  0
  9 10  1  0  0  0  0
  9 26  1  0  0  0  0
  9 27  1  0  0  0  0
 10 25  1  0  0  0  0
 10 28  1  0  0  0  0
 10 29  1  0  0  0  0
 11 30  1  0  0  0  0
 11 34  1  0  0  0  0
 11 35  1  0  0  0  0
 12 31  1  0  0  0  0
 12 32  1  0  0  0  0
 12 33  1  0  0  0  0
 14 16  1  0  0  0  0
 15 18  1  0  0  0  0
 16 19  1  0  0  0  0
 17 21  2  0  0  0  0
 17 22  1  0  0  0  0
 18 20  2  0  0  0  0
 19 23  2  0  0  0  0
 19 24  1  0  0  0  0
 20 36  1  0  0  0  0
 21 23  1  0  0  0  0
 21 38  1  0  0  0  0
 22 37  1  0  0  0  0
 22 24  2  0  0  0  0
 23 40  1  0  0  0  0
 24 39  1  0  0  0  0
M  END
$$$$
3246299
  MOE2005           2D

 70 74  0  0  1  0  0  0  0  0999 V2000
    9.1260    2.6780    0.0000 F   0  0  0  0  0  0  0  0  0  0  0  0
    9.7700    3.9370    0.0000 F   0  0  0  0  0  0  0  0  0  0  0  0
   11.0290    3.2930    0.0000 F   0  0  0  0  0  0  0  0  0  0  0  0
    3.7320   -3.8920    0.0000 O   0  0  0  0  0  0  0  0  0  0  0  0
    2.8720   -2.3880    0.0000 O   0  0  0  0  0  0  0  0  0  0  0  0
   12.0430    3.3050    0.0000 O   0  0  0  0  0  0  0  0  0  0  0  0
   11.3350    1.7240    0.0000 N   0  0  0  0  0  0  0  0  0  0  0  0
   11.3340    0.7240    0.0000 N   0  0  0  0  0  0  0  0  0  0  0  0
   10.0770    2.9860    0.0000 C   0  0  0  0  0  0  0  0  0  0  0  0
    9.1250    0.1610    0.0000 C   0  0  2  0  0  0  0  0  0  0  0  0
    6.4910   -1.3460    0.0000 C   0  0  2  0  0  0  0  0  0  0  0  0
    2.0000   -3.8850    0.0000 C   0  0  0  0  0  0  0  0  0  0  0  0
   13.0580    1.9020    0.0000 C   0  0  0  0  0  0  0  0  0  0  0  0
    9.1250   -0.8390    0.0000 C   0  0  1  0  0  0  0  0  0  0  0  0
    6.4830   -2.3460    0.0000 C   0  0  2  0  0  0  0  0  0  0  0  0
    4.6000   -3.3950    0.0000 C   0  0  1  0  0  0  0  0  0  0  0  0
    9.1250   -1.8390    0.0000 C   0  0  2  0  0  0  0  0  0  0  0  0
    7.3930   -1.8390    0.0000 C   0  0  2  0  0  0  0  0  0  0  0  0
    8.2590   -2.3390    0.0000 C   0  0  2  0  0  0  0  0  0  0  0  0
   10.0710   -0.5340    0.0000 C   0  0  2  0  0  0  0  0  0  0  0  0
    8.2590   -0.3390    0.0000 C   0  0  0  0  0  0  0  0  0  0  0  0
    5.5560   -1.7820    0.0000 C   0  0  0  0  0  0  0  0  0  0  0  0
    4.6080   -2.3100    0.0000 C   0  0  0  0  0  0  0  0  0  0  0  0
    7.3930   -0.8390    0.0000 C   0  0  0  0  0  0  0  0  0  0  0  0
   10.0710   -2.1440    0.0000 C   0  0  0  0  0  0  0  0  0  0  0  0
   10.6550   -1.3390    0.0000 C   0  0  0  0  0  0  0  0  0  0  0  0
    5.5400   -3.9370    0.0000 C   0  0  0  0  0  0  0  0  0  0  0  0
    8.2750   -3.3810    0.0000 C   0  0  0  0  0  0  0  0  0  0  0  0
    2.8680   -3.3880    0.0000 C   0  0  0  0  0  0  0  0  0  0  0  0
   12.1450    2.3100    0.0000 C   0  0  0  0  0  0  0  0  0  0  0  0
    6.4750   -3.3880    0.0000 C   0  0  0  0  0  0  0  0  0  0  0  0
    7.3770   -3.9080    0.0000 C   0  0  0  0  0  0  0  0  0  0  0  0
   10.3850    2.0340    0.0000 C   0  0  0  0  0  0  0  0  0  0  0  0
   10.3820    0.4160    0.0000 C   0  0  0  0  0  0  0  0  0  0  0  0
    9.7960    1.2260    0.0000 C   0  0  0  0  0  0  0  0  0  0  0  0
    9.7450    0.1610    0.0000 H   0  0  0  0  0  0  0  0  0  0  0  0
    9.1250    0.7810    0.0000 H   0  0  0  0  0  0  0  0  0  0  0  0
    8.5050    0.1610    0.0000 H   0  0  0  0  0  0  0  0  0  0  0  0
    5.8710   -1.3410    0.0000 H   0  0  0  0  0  0  0  0  0  0  0  0
    6.4960   -0.7260    0.0000 H   0  0  0  0  0  0  0  0  0  0  0  0
    7.1110   -1.3510    0.0000 H   0  0  0  0  0  0  0  0  0  0  0  0
    1.6920   -3.3470    0.0000 H   0  0  0  0  0  0  0  0  0  0  0  0
    1.4620   -4.1930    0.0000 H   0  0  0  0  0  0  0  0  0  0  0  0
    2.3080   -4.4230    0.0000 H   0  0  0  0  0  0  0  0  0  0  0  0
   13.3110    2.4680    0.0000 H   0  0  0  0  0  0  0  0  0  0  0  0
   13.6240    1.6480    0.0000 H   0  0  0  0  0  0  0  0  0  0  0  0
   12.8050    1.3360    0.0000 H   0  0  0  0  0  0  0  0  0  0  0  0
    4.0650   -3.0820    0.0000 H   0  0  0  0  0  0  0  0  0  0  0  0
    9.2100   -2.6350    0.0000 H   0  0  0  0  0  0  0  0  0  0  0  0
    8.0860   -1.4390    0.0000 H   0  0  0  0  0  0  0  0  0  0  0  0
    8.9550   -2.7340    0.0000 H   0  0  0  0  0  0  0  0  0  0  0  0
   10.8620   -0.4100    0.0000 H   0  0  0  0  0  0  0  0  0  0  0  0
    8.6580    0.1360    0.0000 H   0  0  0  0  0  0  0  0  0  0  0  0
    7.8610    0.1360    0.0000 H   0  0  0  0  0  0  0  0  0  0  0  0
    5.9640   -1.3150    0.0000 H   0  0  0  0  0  0  0  0  0  0  0  0
    5.1660   -1.3000    0.0000 H   0  0  0  0  0  0  0  0  0  0  0  0
    4.4040   -1.7250    0.0000 H   0  0  0  0  0  0  0  0  0  0  0  0
    3.9970   -2.4110    0.0000 H   0  0  0  0  0  0  0  0  0  0  0  0
    7.1810   -0.2570    0.0000 H   0  0  0  0  0  0  0  0  0  0  0  0
    6.7830   -0.9470    0.0000 H   0  0  0  0  0  0  0  0  0  0  0  0
   10.6090   -2.4530    0.0000 H   0  0  0  0  0  0  0  0  0  0  0  0
    9.8200   -2.7110    0.0000 H   0  0  0  0  0  0  0  0  0  0  0  0
   11.1160   -1.7540    0.0000 H   0  0  0  0  0  0  0  0  0  0  0  0
   11.1160   -0.9240    0.0000 H   0  0  0  0  0  0  0  0  0  0  0  0
    5.1420   -4.4130    0.0000 H   0  0  0  0  0  0  0  0  0  0  0  0
    5.9410   -4.4100    0.0000 H   0  0  0  0  0  0  0  0  0  0  0  0
    8.8840   -3.2650    0.0000 H   0  0  0  0  0  0  0  0  0  0  0  0
    8.4930   -3.9610    0.0000 H   0  0  0  0  0  0  0  0  0  0  0  0
    7.3800   -4.5280    0.0000 H   0  0  0  0  0  0  0  0  0  0  0  0
    9.1760    1.2270    0.0000 H   0  0  0  0  0  0  0  0  0  0  0  0
  1  9  1  0  0  0  0
  2  9  1  0  0  0  0
  3  9  1  0  0  0  0
 16  4  1  1  0  0  0
  4 29  1  0  0  0  0
  5 29  2  0  0  0  0
  6 30  2  0  0  0  0
  7 33  1  0  0  0  0
  7 30  1  0  0  0  0
  7  8  1  0  0  0  0
  8 34  2  0  0  0  0
  9 33  1  0  0  0  0
 14 10  1  6  0  0  0
 10 38  1  0  0  0  0
 10 36  1  0  0  0  0
 10 37  1  0  0  0  0
 15 11  1  1  0  0  0
 11 41  1  0  0  0  0
 11 39  1  0  0  0  0
 11 40  1  0  0  0  0
 12 29  1  0  0  0  0
 12 44  1  0  0  0  0
 12 42  1  0  0  0  0
 12 43  1  0  0  0  0
 13 30  1  0  0  0  0
 13 47  1  0  0  0  0
 13 45  1  0  0  0  0
 13 46  1  0  0  0  0
 14 20  1  0  0  0  0
 14 21  1  1  0  0  0
 14 17  1  0  0  0  0
 15 18  1  0  0  0  0
 15 31  1  0  0  0  0
 15 22  1  6  0  0  0
 16 27  1  0  0  0  0
 16 23  1  0  0  0  0
 16 48  1  6  0  0  0
 17 25  1  1  0  0  0
 17 19  1  0  0  0  0
 17 49  1  6  0  0  0
 18 19  1  0  0  0  0
 18 24  1  1  0  0  0
 18 50  1  6  0  0  0
 19 51  1  6  0  0  0
 19 28  1  1  0  0  0
 20 34  1  0  0  0  0
 20 26  1  1  0  0  0
 20 52  1  6  0  0  0
 21 24  1  0  0  0  0
 21 54  1  0  0  0  0
 21 53  1  0  0  0  0
 22 56  1  0  0  0  0
 22 55  1  0  0  0  0
 22 23  1  0  0  0  0
 23 57  1  0  0  0  0
 23 58  1  0  0  0  0
 24 59  1  0  0  0  0
 24 60  1  0  0  0  0
 25 26  1  0  0  0  0
 25 62  1  0  0  0  0
 25 61  1  0  0  0  0
 26 63  1  0  0  0  0
 26 64  1  0  0  0  0
 27 31  1  0  0  0  0
 27 66  1  0  0  0  0
 27 65  1  0  0  0  0
 28 68  1  0  0  0  0
 28 67  1  0  0  0  0
 28 32  1  0  0  0  0
 31 32  2  0  0  0  0
 32 69  1  0  0  0  0
 33 35  2  0  0  0  0
 34 35  1  0  0  0  0
 35 70  1  0  0  0  0
M  END
$$$$
3246349
  MOE2005           2D

 78 85  0  0  1  0  0  0  0  0999 V2000
    3.3710    1.1120    0.0000 O   0  0  0  0  0  0  0  0  0  0  0  0
    4.3930    0.5340    0.0000 O   0  0  0  0  0  0  0  0  0  0  0  0
    5.3740   -1.6680    0.0000 O   0  0  0  0  0  0  0  0  0  0  0  0
    6.8550    1.3010    0.0000 O   0  0  0  0  0  0  0  0  0  0  0  0
    4.5850    4.5070    0.0000 O   0  0  0  0  0  0  0  0  0  0  0  0
    6.2350   -0.1650    0.0000 N   0  0  0  0  0  0  0  0  0  0  0  0
    8.9070   -1.6690    0.0000 N   0  0  0  0  0  0  0  0  0  0  0  0
    5.1950    1.9320    0.0000 N   0  0  0  0  0  0  0  0  0  0  0  0
    3.5720    3.1010    0.0000 N   0  0  0  0  0  0  0  0  0  0  0  0
   10.0880   -5.7850    0.0000 N   0  0  0  0  0  0  0  0  0  0  0  0
    6.2080    3.3370    0.0000 C   0  0  2  0  0  0  0  0  0  0  0  0
    9.7780   -1.1790    0.0000 C   0  0  0  0  0  0  0  0  0  0  0  0
    5.1620   -0.6470    0.0000 C   0  0  0  0  0  0  0  0  0  0  0  0
    4.2830    1.5220    0.0000 C   0  0  1  0  0  0  0  0  0  0  0  0
    5.3670    0.3320    0.0000 C   0  0  1  0  0  0  0  0  0  0  0  0
    3.4720    2.1060    0.0000 C   0  0  1  0  0  0  0  0  0  0  0  0
    5.2960    2.9270    0.0000 C   0  0  2  0  0  0  0  0  0  0  0  0
    8.8900   -2.7100    0.0000 C   0  0  1  0  0  0  0  0  0  0  0  0
    7.1060   -1.6620    0.0000 C   0  0  2  0  0  0  0  0  0  0  0  0
    8.0080   -1.1410    0.0000 C   0  0  0  0  0  0  0  0  0  0  0  0
    2.6620    3.5000    0.0000 C   0  0  0  0  0  0  0  0  0  0  0  0
    2.5000    1.8990    0.0000 C   0  0  0  0  0  0  0  0  0  0  0  0
    2.0000    2.7580    0.0000 C   0  0  0  0  0  0  0  0  0  0  0  0
    9.7560   -3.2100    0.0000 C   0  0  0  0  0  0  0  0  0  0  0  0
    6.2380   -1.1650    0.0000 C   0  0  0  0  0  0  0  0  0  0  0  0
    5.8610    1.1940    0.0000 C   0  0  0  0  0  0  0  0  0  0  0  0
    4.4840    3.5120    0.0000 C   0  0  0  0  0  0  0  0  0  0  0  0
    8.0240   -3.2100    0.0000 C   0  0  0  0  0  0  0  0  0  0  0  0
    7.1140   -2.7030    0.0000 C   0  0  0  0  0  0  0  0  0  0  0  0
    8.9070   -5.7520    0.0000 C   0  0  0  0  0  0  0  0  0  0  0  0
    6.3080    4.3320    0.0000 C   0  0  0  0  0  0  0  0  0  0  0  0
    9.7560   -4.2100    0.0000 C   0  0  0  0  0  0  0  0  0  0  0  0
    8.0240   -4.2100    0.0000 C   0  0  0  0  0  0  0  0  0  0  0  0
    8.8900   -4.7100    0.0000 C   0  0  0  0  0  0  0  0  0  0  0  0
   10.4930   -4.8770    0.0000 C   0  0  0  0  0  0  0  0  0  0  0  0
    8.0080   -6.2790    0.0000 C   0  0  0  0  0  0  0  0  0  0  0  0
    5.4970    4.9170    0.0000 C   0  0  0  0  0  0  0  0  0  0  0  0
    7.2200    4.7420    0.0000 C   0  0  0  0  0  0  0  0  0  0  0  0
    7.1140   -4.7170    0.0000 C   0  0  0  0  0  0  0  0  0  0  0  0
    7.1060   -5.7590    0.0000 C   0  0  0  0  0  0  0  0  0  0  0  0
    5.5980    5.9120    0.0000 C   0  0  0  0  0  0  0  0  0  0  0  0
    7.3210    5.7370    0.0000 C   0  0  0  0  0  0  0  0  0  0  0  0
    6.5100    6.3220    0.0000 C   0  0  0  0  0  0  0  0  0  0  0  0
    3.3090    0.4950    0.0000 H   0  0  0  0  0  0  0  0  0  0  0  0
    6.7700    0.1470    0.0000 H   0  0  0  0  0  0  0  0  0  0  0  0
   10.3980   -6.3220    0.0000 H   0  0  0  0  0  0  0  0  0  0  0  0
    6.8260    3.3830    0.0000 H   0  0  0  0  0  0  0  0  0  0  0  0
    6.3600    2.7360    0.0000 H   0  0  0  0  0  0  0  0  0  0  0  0
   10.0820   -1.7190    0.0000 H   0  0  0  0  0  0  0  0  0  0  0  0
   10.3190   -0.8750    0.0000 H   0  0  0  0  0  0  0  0  0  0  0  0
    9.4740   -0.6380    0.0000 H   0  0  0  0  0  0  0  0  0  0  0  0
    4.5560   -0.5210    0.0000 H   0  0  0  0  0  0  0  0  0  0  0  0
    5.0360   -1.2540    0.0000 H   0  0  0  0  0  0  0  0  0  0  0  0
    5.7690   -0.7740    0.0000 H   0  0  0  0  0  0  0  0  0  0  0  0
    3.3070    1.3230    0.0000 H   0  0  0  0  0  0  0  0  0  0  0  0
    5.7990    2.5640    0.0000 H   0  0  0  0  0  0  0  0  0  0  0  0
    9.5860   -2.3150    0.0000 H   0  0  0  0  0  0  0  0  0  0  0  0
    6.5710   -1.9750    0.0000 H   0  0  0  0  0  0  0  0  0  0  0  0
    7.6110   -0.6650    0.0000 H   0  0  0  0  0  0  0  0  0  0  0  0
    8.4090   -0.6680    0.0000 H   0  0  0  0  0  0  0  0  0  0  0  0
    2.9690    4.0390    0.0000 H   0  0  0  0  0  0  0  0  0  0  0  0
    2.1580    3.8620    0.0000 H   0  0  0  0  0  0  0  0  0  0  0  0
    1.9340    1.6450    0.0000 H   0  0  0  0  0  0  0  0  0  0  0  0
    2.6920    1.3090    0.0000 H   0  0  0  0  0  0  0  0  0  0  0  0
    1.5830    3.2170    0.0000 H   0  0  0  0  0  0  0  0  0  0  0  0
    1.5000    2.3920    0.0000 H   0  0  0  0  0  0  0  0  0  0  0  0
    9.9690   -2.6280    0.0000 H   0  0  0  0  0  0  0  0  0  0  0  0
   10.3670   -3.3180    0.0000 H   0  0  0  0  0  0  0  0  0  0  0  0
    6.5810   -3.0190    0.0000 H   0  0  0  0  0  0  0  0  0  0  0  0
   11.1000   -4.7490    0.0000 H   0  0  0  0  0  0  0  0  0  0  0  0
    8.0110   -6.8990    0.0000 H   0  0  0  0  0  0  0  0  0  0  0  0
    4.9320    4.6620    0.0000 H   0  0  0  0  0  0  0  0  0  0  0  0
    7.7230    4.3800    0.0000 H   0  0  0  0  0  0  0  0  0  0  0  0
    6.5810   -4.4010    0.0000 H   0  0  0  0  0  0  0  0  0  0  0  0
    6.5680   -6.0670    0.0000 H   0  0  0  0  0  0  0  0  0  0  0  0
    5.0950    6.2740    0.0000 H   0  0  0  0  0  0  0  0  0  0  0  0
    7.8860    5.9920    0.0000 H   0  0  0  0  0  0  0  0  0  0  0  0
    6.5720    6.9390    0.0000 H   0  0  0  0  0  0  0  0  0  0  0  0
 14  1  1  6  0  0  0
  1 44  1  0  0  0  0
 14  2  1  1  0  0  0
  2 15  1  0  0  0  0
  3 25  2  0  0  0  0
  4 26  2  0  0  0  0
  5 27  2  0  0  0  0
 15  6  1  1  0  0  0
  6 25  1  0  0  0  0
  6 45  1  0  0  0  0
  7 20  1  0  0  0  0
  7 18  1  0  0  0  0
  7 12  1  0  0  0  0
  8 14  1  0  0  0  0
  8 26  1  0  0  0  0
  8 17  1  0  0  0  0
  9 27  1  0  0  0  0
  9 21  1  0  0  0  0
  9 16  1  0  0  0  0
 10 30  1  0  0  0  0
 10 46  1  0  0  0  0
 10 35  1  0  0  0  0
 11 17  1  0  0  0  0
 11 31  1  0  0  0  0
 11 48  1  1  0  0  0
 11 47  1  6  0  0  0
 12 49  1  0  0  0  0
 12 50  1  0  0  0  0
 12 51  1  0  0  0  0
 15 13  1  6  0  0  0
 13 54  1  0  0  0  0
 13 52  1  0  0  0  0
 13 53  1  0  0  0  0
 14 16  1  0  0  0  0
 15 26  1  0  0  0  0
 16 55  1  6  0  0  0
 16 22  1  1  0  0  0
 17 56  1  6  0  0  0
 17 27  1  0  0  0  0
 18 24  1  1  0  0  0
 18 57  1  6  0  0  0
 18 28  1  0  0  0  0
 19 25  1  1  0  0  0
 19 20  1  0  0  0  0
 19 29  1  0  0  0  0
 19 58  1  6  0  0  0
 20 59  1  0  0  0  0
 20 60  1  0  0  0  0
 21 62  1  0  0  0  0
 21 61  1  0  0  0  0
 21 23  1  0  0  0  0
 22 23  1  0  0  0  0
 22 64  1  0  0  0  0
 22 63  1  0  0  0  0
 23 65  1  0  0  0  0
 23 66  1  0  0  0  0
 24 68  1  0  0  0  0
 24 67  1  0  0  0  0
 24 32  1  0  0  0  0
 28 33  1  0  0  0  0
 28 29  2  0  0  0  0
 29 69  1  0  0  0  0
 30 34  2  0  0  0  0
 30 36  1  0  0  0  0
 31 37  2  0  0  0  0
 31 38  1  0  0  0  0
 32 34  1  0  0  0  0
 32 35  2  0  0  0  0
 33 34  1  0  0  0  0
 33 39  2  0  0  0  0
 35 70  1  0  0  0  0
 36 40  2  0  0  0  0
 36 71  1  0  0  0  0
 37 72  1  0  0  0  0
 37 41  1  0  0  0  0
 38 73  1  0  0  0  0
 38 42  2  0  0  0  0
 39 74  1  0  0  0  0
 39 40  1  0  0  0  0
 40 75  1  0  0  0  0
 41 76  1  0  0  0  0
 41 43  2  0  0  0  0
 42 43  1  0  0  0  0
 42 77  1  0  0  0  0
 43 78  1  0  0  0  0
M  END
$$$$
3246454
  MOE2005           2D

 72 77  0  0  1  0  0  0  0  0999 V2000
   10.7430    1.6360    0.0000 O   0  0  0  0  0  0  0  0  0  0  0  0
   12.5170    0.6110    0.0000 O   0  0  0  0  0  0  0  0  0  0  0  0
    2.6170    3.8960    0.0000 O   0  0  0  0  0  0  0  0  0  0  0  0
    8.9990   -2.4340    0.0000 N   0  0  0  0  0  0  0  0  0  0  0  0
    7.2410    0.6110    0.0000 N   0  0  0  0  0  0  0  0  0  0  0  0
    4.4920    0.3020    0.0000 N   0  0  0  0  0  0  0  0  0  0  0  0
    6.3350   -2.9580    0.0000 C   0  0  2  0  0  0  0  0  0  0  0  0
    6.3350   -0.9100    0.0000 C   0  0  2  0  0  0  0  0  0  0  0  0
   11.6070    2.1390    0.0000 C   0  0  0  0  0  0  0  0  0  0  0  0
   13.3810    0.1080    0.0000 C   0  0  0  0  0  0  0  0  0  0  0  0
    6.3390   -3.9580    0.0000 C   0  0  0  0  0  0  0  0  0  0  0  0
    7.1990   -2.4550    0.0000 C   0  0  2  0  0  0  0  0  0  0  0  0
    7.1990   -1.4130    0.0000 C   0  0  2  0  0  0  0  0  0  0  0  0
    6.3390    0.0900    0.0000 C   0  0  2  0  0  0  0  0  0  0  0  0
    8.9990   -1.4340    0.0000 C   0  0  2  0  0  0  0  0  0  0  0  0
    8.1050   -2.9680    0.0000 C   0  0  0  0  0  0  0  0  0  0  0  0
    7.2330    1.6530    0.0000 C   0  0  0  0  0  0  0  0  0  0  0  0
    9.8650   -2.9340    0.0000 C   0  0  0  0  0  0  0  0  0  0  0  0
    8.1050   -0.8990    0.0000 C   0  0  0  0  0  0  0  0  0  0  0  0
    6.3230    2.1600    0.0000 C   0  0  0  0  0  0  0  0  0  0  0  0
   10.7310   -2.4340    0.0000 C   0  0  0  0  0  0  0  0  0  0  0  0
    5.4410    0.6180    0.0000 C   0  0  0  0  0  0  0  0  0  0  0  0
   10.7470    0.6360    0.0000 C   0  0  0  0  0  0  0  0  0  0  0  0
   11.6490    0.1150    0.0000 C   0  0  0  0  0  0  0  0  0  0  0  0
    3.0270    2.9840    0.0000 C   0  0  0  0  0  0  0  0  0  0  0  0
    3.8980    1.1060    0.0000 C   0  0  0  0  0  0  0  0  0  0  0  0
    5.4330    1.6180    0.0000 C   0  0  0  0  0  0  0  0  0  0  0  0
    9.8650   -0.9340    0.0000 C   0  0  0  0  0  0  0  0  0  0  0  0
   10.7310   -1.4340    0.0000 C   0  0  0  0  0  0  0  0  0  0  0  0
    4.4790    1.9200    0.0000 C   0  0  0  0  0  0  0  0  0  0  0  0
    9.8490    0.1080    0.0000 C   0  0  0  0  0  0  0  0  0  0  0  0
   11.6410   -0.9270    0.0000 C   0  0  0  0  0  0  0  0  0  0  0  0
    4.0630    2.8750    0.0000 C   0  0  0  0  0  0  0  0  0  0  0  0
    2.4210    2.1360    0.0000 C   0  0  0  0  0  0  0  0  0  0  0  0
    2.8600    1.1910    0.0000 C   0  0  0  0  0  0  0  0  0  0  0  0
    2.0000    3.9580    0.0000 H   0  0  0  0  0  0  0  0  0  0  0  0
    7.7790    0.3030    0.0000 H   0  0  0  0  0  0  0  0  0  0  0  0
    4.3050   -0.2890    0.0000 H   0  0  0  0  0  0  0  0  0  0  0  0
    5.7250   -3.0680    0.0000 H   0  0  0  0  0  0  0  0  0  0  0  0
    6.1200   -2.3760    0.0000 H   0  0  0  0  0  0  0  0  0  0  0  0
    6.1200   -1.4910    0.0000 H   0  0  0  0  0  0  0  0  0  0  0  0
    5.7250   -0.8000    0.0000 H   0  0  0  0  0  0  0  0  0  0  0  0
   11.9190    1.6030    0.0000 H   0  0  0  0  0  0  0  0  0  0  0  0
   12.1430    2.4510    0.0000 H   0  0  0  0  0  0  0  0  0  0  0  0
   11.2950    2.6750    0.0000 H   0  0  0  0  0  0  0  0  0  0  0  0
   13.0690   -0.4280    0.0000 H   0  0  0  0  0  0  0  0  0  0  0  0
   13.9170   -0.2040    0.0000 H   0  0  0  0  0  0  0  0  0  0  0  0
   13.6930    0.6440    0.0000 H   0  0  0  0  0  0  0  0  0  0  0  0
    5.7190   -3.9600    0.0000 H   0  0  0  0  0  0  0  0  0  0  0  0
    6.3410   -4.5780    0.0000 H   0  0  0  0  0  0  0  0  0  0  0  0
    6.9590   -3.9560    0.0000 H   0  0  0  0  0  0  0  0  0  0  0  0
    7.2020   -3.0750    0.0000 H   0  0  0  0  0  0  0  0  0  0  0  0
    6.6610   -1.7220    0.0000 H   0  0  0  0  0  0  0  0  0  0  0  0
    6.8750   -0.2210    0.0000 H   0  0  0  0  0  0  0  0  0  0  0  0
    9.0050   -0.6340    0.0000 H   0  0  0  0  0  0  0  0  0  0  0  0
    8.5090   -3.4380    0.0000 H   0  0  0  0  0  0  0  0  0  0  0  0
    7.7110   -3.4470    0.0000 H   0  0  0  0  0  0  0  0  0  0  0  0
    7.4370    2.2380    0.0000 H   0  0  0  0  0  0  0  0  0  0  0  0
    7.8440    1.5510    0.0000 H   0  0  0  0  0  0  0  0  0  0  0  0
   10.2630   -3.4090    0.0000 H   0  0  0  0  0  0  0  0  0  0  0  0
    9.4660   -3.4090    0.0000 H   0  0  0  0  0  0  0  0  0  0  0  0
    8.5090   -0.4290    0.0000 H   0  0  0  0  0  0  0  0  0  0  0  0
    7.7110   -0.4200    0.0000 H   0  0  0  0  0  0  0  0  0  0  0  0
    5.9140    2.6260    0.0000 H   0  0  0  0  0  0  0  0  0  0  0  0
    6.7130    2.6420    0.0000 H   0  0  0  0  0  0  0  0  0  0  0  0
   11.3410   -2.3260    0.0000 H   0  0  0  0  0  0  0  0  0  0  0  0
   10.9430   -3.0160    0.0000 H   0  0  0  0  0  0  0  0  0  0  0  0
    9.3080    0.4120    0.0000 H   0  0  0  0  0  0  0  0  0  0  0  0
   12.1740   -1.2430    0.0000 H   0  0  0  0  0  0  0  0  0  0  0  0
    4.4290    3.3750    0.0000 H   0  0  0  0  0  0  0  0  0  0  0  0
    1.8040    2.1940    0.0000 H   0  0  0  0  0  0  0  0  0  0  0  0
    2.5050    0.6830    0.0000 H   0  0  0  0  0  0  0  0  0  0  0  0
  1 23  1  0  0  0  0
  1  9  1  0  0  0  0
  2 24  1  0  0  0  0
  2 10  1  0  0  0  0
  3 25  1  0  0  0  0
  3 36  1  0  0  0  0
  4 18  1  0  0  0  0
  4 16  1  0  0  0  0
  4 15  1  0  0  0  0
  5 14  1  0  0  0  0
  5 37  1  0  0  0  0
  5 17  1  0  0  0  0
  6 22  1  0  0  0  0
  6 38  1  0  0  0  0
  6 26  1  0  0  0  0
 12  7  1  6  0  0  0
  7 11  1  0  0  0  0
  7 40  1  6  0  0  0
  7 39  1  1  0  0  0
  8 13  1  0  0  0  0
  8 14  1  0  0  0  0
  8 42  1  6  0  0  0
  8 41  1  1  0  0  0
  9 43  1  0  0  0  0
  9 44  1  0  0  0  0
  9 45  1  0  0  0  0
 10 46  1  0  0  0  0
 10 47  1  0  0  0  0
 10 48  1  0  0  0  0
 11 49  1  0  0  0  0
 11 50  1  0  0  0  0
 11 51  1  0  0  0  0
 12 16  1  0  0  0  0
 12 13  1  0  0  0  0
 12 52  1  1  0  0  0
 13 53  1  6  0  0  0
 13 19  1  0  0  0  0
 14 54  1  1  0  0  0
 14 22  1  0  0  0  0
 15 28  1  6  0  0  0
 15 55  1  1  0  0  0
 15 19  1  0  0  0  0
 16 56  1  0  0  0  0
 16 57  1  0  0  0  0
 17 20  1  0  0  0  0
 17 59  1  0  0  0  0
 17 58  1  0  0  0  0
 18 21  1  0  0  0  0
 18 61  1  0  0  0  0
 18 60  1  0  0  0  0
 19 62  1  0  0  0  0
 19 63  1  0  0  0  0
 20 27  1  0  0  0  0
 20 65  1  0  0  0  0
 20 64  1  0  0  0  0
 21 29  1  0  0  0  0
 21 67  1  0  0  0  0
 21 66  1  0  0  0  0
 22 27  2  0  0  0  0
 23 31  2  0  0  0  0
 23 24  1  0  0  0  0
 24 32  2  0  0  0  0
 25 33  1  0  0  0  0
 25 34  2  0  0  0  0
 26 30  1  0  0  0  0
 26 35  2  0  0  0  0
 27 30  1  0  0  0  0
 28 31  1  0  0  0  0
 28 29  2  0  0  0  0
 29 32  1  0  0  0  0
 30 33  2  0  0  0  0
 31 68  1  0  0  0  0
 32 69  1  0  0  0  0
 33 70  1  0  0  0  0
 34 71  1  0  0  0  0
 34 35  1  0  0  0  0
 35 72  1  0  0  0  0
M  END
$$$$
3246466
  MOE2005           2D

 65 69  0  0  1  0  0  0  0  0999 V2000
    2.8700    0.5280    0.0000 O   0  0  0  0  0  0  0  0  0  0  0  0
    2.8540    2.5280    0.0000 O   0  0  0  0  0  0  0  0  0  0  0  0
    9.0220   -2.0040    0.0000 N   0  0  0  0  0  0  0  0  0  0  0  0
    7.2640    1.0410    0.0000 N   0  0  0  0  0  0  0  0  0  0  0  0
    6.3580   -2.5280    0.0000 C   0  0  0  0  0  0  0  0  0  0  0  0
    6.3580   -0.4800    0.0000 C   0  0  1  0  0  0  0  0  0  0  0  0
    2.0000    1.0210    0.0000 C   0  0  0  0  0  0  0  0  0  0  0  0
    2.8470    3.5280    0.0000 C   0  0  0  0  0  0  0  0  0  0  0  0
    6.3620   -3.5280    0.0000 C   0  0  0  0  0  0  0  0  0  0  0  0
    6.3620    0.5200    0.0000 C   0  0  2  0  0  0  0  0  0  0  0  0
    9.0220   -1.0040    0.0000 C   0  0  1  0  0  0  0  0  0  0  0  0
    7.2560    2.0830    0.0000 C   0  0  0  0  0  0  0  0  0  0  0  0
    9.8880   -2.5040    0.0000 C   0  0  0  0  0  0  0  0  0  0  0  0
    8.1280   -2.5390    0.0000 C   0  0  0  0  0  0  0  0  0  0  0  0
    8.1280   -0.4690    0.0000 C   0  0  0  0  0  0  0  0  0  0  0  0
    6.3460    2.5900    0.0000 C   0  0  0  0  0  0  0  0  0  0  0  0
   10.7540   -2.0040    0.0000 C   0  0  0  0  0  0  0  0  0  0  0  0
    7.2220   -2.0250    0.0000 C   0  0  0  0  0  0  0  0  0  0  0  0
    7.2220   -0.9830    0.0000 C   0  0  0  0  0  0  0  0  0  0  0  0
    3.7320    1.0350    0.0000 C   0  0  0  0  0  0  0  0  0  0  0  0
    3.7240    2.0350    0.0000 C   0  0  0  0  0  0  0  0  0  0  0  0
    5.4640    1.0480    0.0000 C   0  0  0  0  0  0  0  0  0  0  0  0
    5.4560    2.0480    0.0000 C   0  0  0  0  0  0  0  0  0  0  0  0
    9.8880   -0.5040    0.0000 C   0  0  0  0  0  0  0  0  0  0  0  0
   10.7540   -1.0040    0.0000 C   0  0  0  0  0  0  0  0  0  0  0  0
    4.6020    0.5410    0.0000 C   0  0  0  0  0  0  0  0  0  0  0  0
    4.5860    2.5410    0.0000 C   0  0  0  0  0  0  0  0  0  0  0  0
    9.8720    0.5380    0.0000 C   0  0  0  0  0  0  0  0  0  0  0  0
   11.6640   -0.4970    0.0000 C   0  0  0  0  0  0  0  0  0  0  0  0
   10.7700    1.0650    0.0000 C   0  0  0  0  0  0  0  0  0  0  0  0
   11.6720    0.5450    0.0000 C   0  0  0  0  0  0  0  0  0  0  0  0
    7.8020    0.7330    0.0000 H   0  0  0  0  0  0  0  0  0  0  0  0
    5.7480   -2.6380    0.0000 H   0  0  0  0  0  0  0  0  0  0  0  0
    6.1440   -1.9460    0.0000 H   0  0  0  0  0  0  0  0  0  0  0  0
    6.1440   -1.0620    0.0000 H   0  0  0  0  0  0  0  0  0  0  0  0
    5.7480   -0.3700    0.0000 H   0  0  0  0  0  0  0  0  0  0  0  0
    2.3060    1.5610    0.0000 H   0  0  0  0  0  0  0  0  0  0  0  0
    1.4610    1.3270    0.0000 H   0  0  0  0  0  0  0  0  0  0  0  0
    1.6940    0.4820    0.0000 H   0  0  0  0  0  0  0  0  0  0  0  0
    3.4670    3.5330    0.0000 H   0  0  0  0  0  0  0  0  0  0  0  0
    2.8420    4.1480    0.0000 H   0  0  0  0  0  0  0  0  0  0  0  0
    2.2270    3.5230    0.0000 H   0  0  0  0  0  0  0  0  0  0  0  0
    5.7420   -3.5300    0.0000 H   0  0  0  0  0  0  0  0  0  0  0  0
    6.3640   -4.1480    0.0000 H   0  0  0  0  0  0  0  0  0  0  0  0
    6.9820   -3.5260    0.0000 H   0  0  0  0  0  0  0  0  0  0  0  0
    6.8980    0.2090    0.0000 H   0  0  0  0  0  0  0  0  0  0  0  0
    9.0280   -0.2040    0.0000 H   0  0  0  0  0  0  0  0  0  0  0  0
    7.8680    1.9810    0.0000 H   0  0  0  0  0  0  0  0  0  0  0  0
    7.4610    2.6680    0.0000 H   0  0  0  0  0  0  0  0  0  0  0  0
    9.4900   -2.9790    0.0000 H   0  0  0  0  0  0  0  0  0  0  0  0
   10.2870   -2.9790    0.0000 H   0  0  0  0  0  0  0  0  0  0  0  0
    8.5330   -3.0080    0.0000 H   0  0  0  0  0  0  0  0  0  0  0  0
    7.7350   -3.0180    0.0000 H   0  0  0  0  0  0  0  0  0  0  0  0
    7.7350    0.0100    0.0000 H   0  0  0  0  0  0  0  0  0  0  0  0
    8.5330    0.0010    0.0000 H   0  0  0  0  0  0  0  0  0  0  0  0
    5.9380    3.0560    0.0000 H   0  0  0  0  0  0  0  0  0  0  0  0
    6.7360    3.0720    0.0000 H   0  0  0  0  0  0  0  0  0  0  0  0
   11.3650   -1.8960    0.0000 H   0  0  0  0  0  0  0  0  0  0  0  0
   10.9660   -2.5860    0.0000 H   0  0  0  0  0  0  0  0  0  0  0  0
    4.6070   -0.0790    0.0000 H   0  0  0  0  0  0  0  0  0  0  0  0
    4.5820    3.1610    0.0000 H   0  0  0  0  0  0  0  0  0  0  0  0
    9.3320    0.8420    0.0000 H   0  0  0  0  0  0  0  0  0  0  0  0
   12.1980   -0.8130    0.0000 H   0  0  0  0  0  0  0  0  0  0  0  0
   10.7680    1.6850    0.0000 H   0  0  0  0  0  0  0  0  0  0  0  0
   12.2110    0.8530    0.0000 H   0  0  0  0  0  0  0  0  0  0  0  0
  1 20  1  0  0  0  0
  1  7  1  0  0  0  0
  2 21  1  0  0  0  0
  2  8  1  0  0  0  0
  3 11  1  0  0  0  0
  3 14  1  0  0  0  0
  3 13  1  0  0  0  0
  4 12  1  0  0  0  0
  4 32  1  0  0  0  0
  4 10  1  0  0  0  0
  5 18  1  0  0  0  0
  5  9  1  0  0  0  0
  5 34  1  0  0  0  0
  5 33  1  0  0  0  0
  6 10  1  0  0  0  0
  6 19  1  0  0  0  0
  6 36  1  6  0  0  0
  6 35  1  1  0  0  0
  7 37  1  0  0  0  0
  7 38  1  0  0  0  0
  7 39  1  0  0  0  0
  8 40  1  0  0  0  0
  8 41  1  0  0  0  0
  8 42  1  0  0  0  0
  9 43  1  0  0  0  0
  9 44  1  0  0  0  0
  9 45  1  0  0  0  0
 10 22  1  0  0  0  0
 10 46  1  1  0  0  0
 11 15  1  1  0  0  0
 11 24  1  0  0  0  0
 11 47  1  6  0  0  0
 12 16  1  0  0  0  0
 12 49  1  0  0  0  0
 12 48  1  0  0  0  0
 13 17  1  0  0  0  0
 13 51  1  0  0  0  0
 13 50  1  0  0  0  0
 14 53  1  0  0  0  0
 14 52  1  0  0  0  0
 14 18  1  0  0  0  0
 15 19  1  0  0  0  0
 15 55  1  0  0  0  0
 15 54  1  0  0  0  0
 16 23  1  0  0  0  0
 16 57  1  0  0  0  0
 16 56  1  0  0  0  0
 17 25  1  0  0  0  0
 17 59  1  0  0  0  0
 17 58  1  0  0  0  0
 18 19  2  0  0  0  0
 20 26  2  0  0  0  0
 20 21  1  0  0  0  0
 21 27  2  0  0  0  0
 22 26  1  0  0  0  0
 22 23  2  0  0  0  0
 23 27  1  0  0  0  0
 24 28  1  0  0  0  0
 24 25  2  0  0  0  0
 25 29  1  0  0  0  0
 26 60  1  0  0  0  0
 27 61  1  0  0  0  0
 28 62  1  0  0  0  0
 28 30  2  0  0  0  0
 29 31  2  0  0  0  0
 29 63  1  0  0  0  0
 30 64  1  0  0  0  0
 30 31  1  0  0  0  0
 31 65  1  0  0  0  0
M  END
$$$$
3246584
  MOE2005           2D

104108  0  0  1  0  0  0  0  0999 V2000
    9.5790    6.2280    0.0000 O   0  0  0  0  0  0  0  0  0  0  0  0
    7.9490   -3.1970    0.0000 O   0  0  0  0  0  0  0  0  0  0  0  0
    5.5300   -5.9310    0.0000 O   0  0  0  0  0  0  0  0  0  0  0  0
    4.6930   -6.3180    0.0000 O   0  0  0  0  0  0  0  0  0  0  0  0
    6.2480    1.0770    0.0000 O   0  0  0  0  0  0  0  0  0  0  0  0
    8.5500   -1.7410    0.0000 O   0  0  0  0  0  0  0  0  0  0  0  0
    6.7510    0.1190    0.0000 O   0  0  0  0  0  0  0  0  0  0  0  0
    5.8280    0.1700    0.0000 O   0  0  0  0  0  0  0  0  0  0  0  0
    5.5140   -1.0590    0.0000 O   0  0  0  0  0  0  0  0  0  0  0  0
    2.0000   -1.9150    0.0000 O   0  0  0  0  0  0  0  0  0  0  0  0
    6.3130    2.6630    0.0000 N   0  0  0  0  0  0  0  0  0  0  0  0
    6.7080   -1.4900    0.0000 N   0  0  0  0  0  0  0  0  0  0  0  0
    4.4060   -2.1370    0.0000 N   0  0  0  0  0  0  0  0  0  0  0  0
    4.2560    0.8980    0.0000 N   0  0  0  0  0  0  0  0  0  0  0  0
    8.0780    0.6060    0.0000 N   0  0  0  0  0  0  0  0  0  0  0  0
    3.4160   -0.9180    0.0000 N   0  0  0  0  0  0  0  0  0  0  0  0
    7.8980    2.5980    0.0000 C   0  0  1  0  0  0  0  0  0  0  0  0
   10.5750    6.3180    0.0000 C   0  0  0  0  0  0  0  0  0  0  0  0
    5.9680    3.6020    0.0000 C   0  0  0  0  0  0  0  0  0  0  0  0
    6.3630   -0.5510    0.0000 C   0  0  0  0  0  0  0  0  0  0  0  0
    3.6600   -1.4710    0.0000 C   0  0  0  0  0  0  0  0  0  0  0  0
    4.1000    2.6230    0.0000 C   0  0  1  0  0  0  0  0  0  0  0  0
    9.4080   -0.5030    0.0000 C   0  0  1  0  0  0  0  0  0  0  0  0
    4.9880   -1.6450    0.0000 C   0  0  2  0  0  0  0  0  0  0  0  0
    4.6760    1.8050    0.0000 C   0  0  2  0  0  0  0  0  0  0  0  0
    8.4230   -0.3330    0.0000 C   0  0  2  0  0  0  0  0  0  0  0  0
    7.0810    2.0220    0.0000 C   0  0  2  0  0  0  0  0  0  0  0  0
    4.4120   -0.8280    0.0000 C   0  0  1  0  0  0  0  0  0  0  0  0
    6.2880   -2.3970    0.0000 C   0  0  1  0  0  0  0  0  0  0  0  0
    3.5720   -2.6430    0.0000 C   0  0  1  0  0  0  0  0  0  0  0  0
    6.9530   -3.1100    0.0000 C   0  0  1  0  0  0  0  0  0  0  0  0
    3.0450   -3.4630    0.0000 C   0  0  0  0  0  0  0  0  0  0  0  0
    5.6720    1.8950    0.0000 C   0  0  0  0  0  0  0  0  0  0  0  0
    7.7820   -1.1010    0.0000 C   0  0  0  0  0  0  0  0  0  0  0  0
    7.1710    1.0260    0.0000 C   0  0  0  0  0  0  0  0  0  0  0  0
    4.8320    0.0800    0.0000 C   0  0  0  0  0  0  0  0  0  0  0  0
    5.3770   -2.0490    0.0000 C   0  0  0  0  0  0  0  0  0  0  0  0
    2.9960   -1.8250    0.0000 C   0  0  0  0  0  0  0  0  0  0  0  0
    4.6640   -5.4310    0.0000 C   0  0  0  0  0  0  0  0  0  0  0  0
    9.1590    5.3200    0.0000 C   0  0  0  0  0  0  0  0  0  0  0  0
    3.7980   -5.9310    0.0000 C   0  0  0  0  0  0  0  0  0  0  0  0
    5.6670   -6.2720    0.0000 C   0  0  0  0  0  0  0  0  0  0  0  0
    8.3180    3.5060    0.0000 C   0  0  0  0  0  0  0  0  0  0  0  0
    2.9320   -4.4310    0.0000 C   0  0  0  0  0  0  0  0  0  0  0  0
    7.2370   -4.0430    0.0000 C   0  0  0  0  0  0  0  0  0  0  0  0
    2.9320   -5.4310    0.0000 C   0  0  0  0  0  0  0  0  0  0  0  0
    8.1630    5.2310    0.0000 C   0  0  0  0  0  0  0  0  0  0  0  0
    9.7340    4.5030    0.0000 C   0  0  0  0  0  0  0  0  0  0  0  0
    4.6640   -4.4310    0.0000 C   0  0  0  0  0  0  0  0  0  0  0  0
    5.7460   -5.2730    0.0000 C   0  0  0  0  0  0  0  0  0  0  0  0
    6.5220   -5.8020    0.0000 C   0  0  0  0  0  0  0  0  0  0  0  0
    7.7420    4.3230    0.0000 C   0  0  0  0  0  0  0  0  0  0  0  0
    9.3140    3.5950    0.0000 C   0  0  0  0  0  0  0  0  0  0  0  0
    3.7980   -3.9310    0.0000 C   0  0  0  0  0  0  0  0  0  0  0  0
    6.3230   -4.4530    0.0000 C   0  0  0  0  0  0  0  0  0  0  0  0
    7.0830   -5.0050    0.0000 C   0  0  0  0  0  0  0  0  0  0  0  0
    8.2110   -3.7590    0.0000 H   0  0  0  0  0  0  0  0  0  0  0  0
    6.0670   -5.6210    0.0000 H   0  0  0  0  0  0  0  0  0  0  0  0
    3.6390    0.8420    0.0000 H   0  0  0  0  0  0  0  0  0  0  0  0
    8.4750    1.0820    0.0000 H   0  0  0  0  0  0  0  0  0  0  0  0
    3.0590   -0.4110    0.0000 H   0  0  0  0  0  0  0  0  0  0  0  0
    8.0600    2.0000    0.0000 H   0  0  0  0  0  0  0  0  0  0  0  0
    7.4220    2.9950    0.0000 H   0  0  0  0  0  0  0  0  0  0  0  0
   10.5190    6.9350    0.0000 H   0  0  0  0  0  0  0  0  0  0  0  0
   11.1920    6.3740    0.0000 H   0  0  0  0  0  0  0  0  0  0  0  0
   10.6300    5.7000    0.0000 H   0  0  0  0  0  0  0  0  0  0  0  0
    5.3860    3.3880    0.0000 H   0  0  0  0  0  0  0  0  0  0  0  0
    5.7550    4.1840    0.0000 H   0  0  0  0  0  0  0  0  0  0  0  0
    6.5500    3.8150    0.0000 H   0  0  0  0  0  0  0  0  0  0  0  0
    6.9450   -0.3370    0.0000 H   0  0  0  0  0  0  0  0  0  0  0  0
    6.1490    0.0310    0.0000 H   0  0  0  0  0  0  0  0  0  0  0  0
    5.7810   -0.7650    0.0000 H   0  0  0  0  0  0  0  0  0  0  0  0
    3.2470   -1.9330    0.0000 H   0  0  0  0  0  0  0  0  0  0  0  0
    3.1980   -1.0570    0.0000 H   0  0  0  0  0  0  0  0  0  0  0  0
    4.0740   -1.0080    0.0000 H   0  0  0  0  0  0  0  0  0  0  0  0
    3.5940    2.2660    0.0000 H   0  0  0  0  0  0  0  0  0  0  0  0
    3.7430    3.1290    0.0000 H   0  0  0  0  0  0  0  0  0  0  0  0
    4.6070    2.9800    0.0000 H   0  0  0  0  0  0  0  0  0  0  0  0
    9.5140    0.1070    0.0000 H   0  0  0  0  0  0  0  0  0  0  0  0
   10.0190   -0.6100    0.0000 H   0  0  0  0  0  0  0  0  0  0  0  0
    9.3020   -1.1140    0.0000 H   0  0  0  0  0  0  0  0  0  0  0  0
    4.4810   -2.0020    0.0000 H   0  0  0  0  0  0  0  0  0  0  0  0
    5.3450   -2.1520    0.0000 H   0  0  0  0  0  0  0  0  0  0  0  0
    5.4950   -1.2880    0.0000 H   0  0  0  0  0  0  0  0  0  0  0  0
    4.0590    1.7490    0.0000 H   0  0  0  0  0  0  0  0  0  0  0  0
    8.8200    0.1430    0.0000 H   0  0  0  0  0  0  0  0  0  0  0  0
    7.1060    2.6420    0.0000 H   0  0  0  0  0  0  0  0  0  0  0  0
    4.1520   -1.3900    0.0000 H   0  0  0  0  0  0  0  0  0  0  0  0
    5.9510   -3.1230    0.0000 H   0  0  0  0  0  0  0  0  0  0  0  0
    4.0320   -3.2970    0.0000 H   0  0  0  0  0  0  0  0  0  0  0  0
    7.3910   -2.6720    0.0000 H   0  0  0  0  0  0  0  0  0  0  0  0
    2.6810   -2.9610    0.0000 H   0  0  0  0  0  0  0  0  0  0  0  0
    3.6290   -3.6720    0.0000 H   0  0  0  0  0  0  0  0  0  0  0  0
    2.3950   -5.7410    0.0000 H   0  0  0  0  0  0  0  0  0  0  0  0
   10.3520    4.5590    0.0000 H   0  0  0  0  0  0  0  0  0  0  0  0
    7.8060    5.7370    0.0000 H   0  0  0  0  0  0  0  0  0  0  0  0
    5.2010   -4.1210    0.0000 H   0  0  0  0  0  0  0  0  0  0  0  0
    5.1630   -5.0620    0.0000 H   0  0  0  0  0  0  0  0  0  0  0  0
    6.9350   -6.2650    0.0000 H   0  0  0  0  0  0  0  0  0  0  0  0
    7.1250    4.2670    0.0000 H   0  0  0  0  0  0  0  0  0  0  0  0
    9.6710    3.0890    0.0000 H   0  0  0  0  0  0  0  0  0  0  0  0
    3.7980   -3.3110    0.0000 H   0  0  0  0  0  0  0  0  0  0  0  0
    5.9290   -3.9750    0.0000 H   0  0  0  0  0  0  0  0  0  0  0  0
    7.6580   -5.2390    0.0000 H   0  0  0  0  0  0  0  0  0  0  0  0
  1 40  1  0  0  0  0
  1 18  1  0  0  0  0
 31  2  1  6  0  0  0
  2 57  1  0  0  0  0
  3 39  1  0  0  0  0
  3 58  1  0  0  0  0
  4 42  1  0  0  0  0
  4 41  1  0  0  0  0
  5 33  2  0  0  0  0
  6 34  2  0  0  0  0
  7 35  2  0  0  0  0
  8 36  2  0  0  0  0
  9 37  2  0  0  0  0
 10 38  2  0  0  0  0
 11 27  1  0  0  0  0
 11 19  1  0  0  0  0
 11 33  1  0  0  0  0
 12 34  1  0  0  0  0
 12 29  1  0  0  0  0
 12 20  1  0  0  0  0
 13 30  1  0  0  0  0
 13 21  1  0  0  0  0
 13 37  1  0  0  0  0
 14 36  1  0  0  0  0
 14 25  1  0  0  0  0
 14 59  1  0  0  0  0
 15 35  1  0  0  0  0
 15 26  1  0  0  0  0
 15 60  1  0  0  0  0
 16 38  1  0  0  0  0
 16 28  1  0  0  0  0
 16 61  1  0  0  0  0
 17 43  1  0  0  0  0
 17 27  1  0  0  0  0
 17 63  1  6  0  0  0
 17 62  1  1  0  0  0
 18 64  1  0  0  0  0
 18 65  1  0  0  0  0
 18 66  1  0  0  0  0
 19 67  1  0  0  0  0
 19 68  1  0  0  0  0
 19 69  1  0  0  0  0
 20 70  1  0  0  0  0
 20 71  1  0  0  0  0
 20 72  1  0  0  0  0
 21 73  1  0  0  0  0
 21 74  1  0  0  0  0
 21 75  1  0  0  0  0
 25 22  1  6  0  0  0
 22 78  1  0  0  0  0
 22 76  1  0  0  0  0
 22 77  1  0  0  0  0
 26 23  1  6  0  0  0
 23 81  1  0  0  0  0
 23 79  1  0  0  0  0
 23 80  1  0  0  0  0
 28 24  1  6  0  0  0
 24 84  1  0  0  0  0
 24 82  1  0  0  0  0
 24 83  1  0  0  0  0
 25 85  1  1  0  0  0
 25 33  1  0  0  0  0
 26 86  1  1  0  0  0
 26 34  1  0  0  0  0
 27 87  1  1  0  0  0
 27 35  1  0  0  0  0
 28 88  1  1  0  0  0
 28 36  1  0  0  0  0
 29 31  1  0  0  0  0
 29 89  1  6  0  0  0
 29 37  1  1  0  0  0
 30 32  1  1  0  0  0
 30 38  1  0  0  0  0
 30 90  1  6  0  0  0
 31 91  1  1  0  0  0
 31 45  1  0  0  0  0
 32 44  1  0  0  0  0
 32 93  1  0  0  0  0
 32 92  1  0  0  0  0
 39 41  2  0  0  0  0
 39 49  1  0  0  0  0
 40 47  2  0  0  0  0
 40 48  1  0  0  0  0
 41 46  1  0  0  0  0
 42 50  2  0  0  0  0
 42 51  1  0  0  0  0
 43 52  2  0  0  0  0
 43 53  1  0  0  0  0
 44 54  1  0  0  0  0
 44 46  2  0  0  0  0
 45 55  2  0  0  0  0
 45 56  1  0  0  0  0
 46 94  1  0  0  0  0
 47 96  1  0  0  0  0
 47 52  1  0  0  0  0
 48 95  1  0  0  0  0
 48 53  2  0  0  0  0
 49 97  1  0  0  0  0
 49 54  2  0  0  0  0
 50 55  1  0  0  0  0
 50 98  1  0  0  0  0
 51 99  1  0  0  0  0
 51 56  2  0  0  0  0
 52100  1  0  0  0  0
 53101  1  0  0  0  0
 54102  1  0  0  0  0
 55103  1  0  0  0  0
 56104  1  0  0  0  0
M  END
$$$$
3246585
  MOE2005           2D

103107  0  0  1  0  0  0  0  0999 V2000
    9.5790    6.2280    0.0000 O   0  0  0  0  0  0  0  0  0  0  0  0
    5.5300   -5.9310    0.0000 O   0  0  0  0  0  0  0  0  0  0  0  0
    4.6930   -6.3180    0.0000 O   0  0  0  0  0  0  0  0  0  0  0  0
    6.2480    1.0770    0.0000 O   0  0  0  0  0  0  0  0  0  0  0  0
    8.5500   -1.7410    0.0000 O   0  0  0  0  0  0  0  0  0  0  0  0
    6.7510    0.1190    0.0000 O   0  0  0  0  0  0  0  0  0  0  0  0
    5.8280    0.1700    0.0000 O   0  0  0  0  0  0  0  0  0  0  0  0
    5.5140   -1.0590    0.0000 O   0  0  0  0  0  0  0  0  0  0  0  0
    2.0000   -1.9150    0.0000 O   0  0  0  0  0  0  0  0  0  0  0  0
    6.3130    2.6630    0.0000 N   0  0  0  0  0  0  0  0  0  0  0  0
    6.7080   -1.4900    0.0000 N   0  0  0  0  0  0  0  0  0  0  0  0
    4.4060   -2.1370    0.0000 N   0  0  0  0  0  0  0  0  0  0  0  0
    4.2560    0.8980    0.0000 N   0  0  0  0  0  0  0  0  0  0  0  0
    8.0780    0.6060    0.0000 N   0  0  0  0  0  0  0  0  0  0  0  0
    3.4160   -0.9180    0.0000 N   0  0  0  0  0  0  0  0  0  0  0  0
    7.8980    2.5980    0.0000 C   0  0  1  0  0  0  0  0  0  0  0  0
   10.5750    6.3180    0.0000 C   0  0  0  0  0  0  0  0  0  0  0  0
    5.9680    3.6020    0.0000 C   0  0  0  0  0  0  0  0  0  0  0  0
    6.3630   -0.5510    0.0000 C   0  0  0  0  0  0  0  0  0  0  0  0
    3.6600   -1.4710    0.0000 C   0  0  0  0  0  0  0  0  0  0  0  0
    4.1000    2.6230    0.0000 C   0  0  1  0  0  0  0  0  0  0  0  0
    9.4080   -0.5030    0.0000 C   0  0  1  0  0  0  0  0  0  0  0  0
    4.9880   -1.6450    0.0000 C   0  0  2  0  0  0  0  0  0  0  0  0
    4.6760    1.8050    0.0000 C   0  0  2  0  0  0  0  0  0  0  0  0
    8.4230   -0.3330    0.0000 C   0  0  2  0  0  0  0  0  0  0  0  0
    7.0810    2.0220    0.0000 C   0  0  2  0  0  0  0  0  0  0  0  0
    4.4120   -0.8280    0.0000 C   0  0  1  0  0  0  0  0  0  0  0  0
    6.2880   -2.3970    0.0000 C   0  0  2  0  0  0  0  0  0  0  0  0
    3.5720   -2.6430    0.0000 C   0  0  2  0  0  0  0  0  0  0  0  0
    3.0450   -3.4630    0.0000 C   0  0  0  0  0  0  0  0  0  0  0  0
    6.9530   -3.1100    0.0000 C   0  0  0  0  0  0  0  0  0  0  0  0
    5.6720    1.8950    0.0000 C   0  0  0  0  0  0  0  0  0  0  0  0
    7.7820   -1.1010    0.0000 C   0  0  0  0  0  0  0  0  0  0  0  0
    7.1710    1.0260    0.0000 C   0  0  0  0  0  0  0  0  0  0  0  0
    4.8320    0.0800    0.0000 C   0  0  0  0  0  0  0  0  0  0  0  0
    5.3770   -2.0490    0.0000 C   0  0  0  0  0  0  0  0  0  0  0  0
    2.9960   -1.8250    0.0000 C   0  0  0  0  0  0  0  0  0  0  0  0
    4.6640   -5.4310    0.0000 C   0  0  0  0  0  0  0  0  0  0  0  0
    9.1590    5.3200    0.0000 C   0  0  0  0  0  0  0  0  0  0  0  0
    3.7980   -5.9310    0.0000 C   0  0  0  0  0  0  0  0  0  0  0  0
    5.6670   -6.2720    0.0000 C   0  0  0  0  0  0  0  0  0  0  0  0
    8.3180    3.5060    0.0000 C   0  0  0  0  0  0  0  0  0  0  0  0
    2.9320   -4.4310    0.0000 C   0  0  0  0  0  0  0  0  0  0  0  0
    7.2370   -4.0430    0.0000 C   0  0  0  0  0  0  0  0  0  0  0  0
    2.9320   -5.4310    0.0000 C   0  0  0  0  0  0  0  0  0  0  0  0
    8.1630    5.2310    0.0000 C   0  0  0  0  0  0  0  0  0  0  0  0
    9.7340    4.5030    0.0000 C   0  0  0  0  0  0  0  0  0  0  0  0
    4.6640   -4.4310    0.0000 C   0  0  0  0  0  0  0  0  0  0  0  0
    5.7460   -5.2730    0.0000 C   0  0  0  0  0  0  0  0  0  0  0  0
    6.5220   -5.8020    0.0000 C   0  0  0  0  0  0  0  0  0  0  0  0
    7.7420    4.3230    0.0000 C   0  0  0  0  0  0  0  0  0  0  0  0
    9.3140    3.5950    0.0000 C   0  0  0  0  0  0  0  0  0  0  0  0
    3.7980   -3.9310    0.0000 C   0  0  0  0  0  0  0  0  0  0  0  0
    6.3230   -4.4530    0.0000 C   0  0  0  0  0  0  0  0  0  0  0  0
    7.0830   -5.0050    0.0000 C   0  0  0  0  0  0  0  0  0  0  0  0
    6.0670   -5.6210    0.0000 H   0  0  0  0  0  0  0  0  0  0  0  0
    3.6390    0.8420    0.0000 H   0  0  0  0  0  0  0  0  0  0  0  0
    8.4750    1.0820    0.0000 H   0  0  0  0  0  0  0  0  0  0  0  0
    3.0590   -0.4110    0.0000 H   0  0  0  0  0  0  0  0  0  0  0  0
    8.0600    2.0000    0.0000 H   0  0  0  0  0  0  0  0  0  0  0  0
    7.4220    2.9950    0.0000 H   0  0  0  0  0  0  0  0  0  0  0  0
   10.5190    6.9350    0.0000 H   0  0  0  0  0  0  0  0  0  0  0  0
   11.1920    6.3740    0.0000 H   0  0  0  0  0  0  0  0  0  0  0  0
   10.6300    5.7000    0.0000 H   0  0  0  0  0  0  0  0  0  0  0  0
    5.3860    3.3880    0.0000 H   0  0  0  0  0  0  0  0  0  0  0  0
    5.7550    4.1840    0.0000 H   0  0  0  0  0  0  0  0  0  0  0  0
    6.5500    3.8150    0.0000 H   0  0  0  0  0  0  0  0  0  0  0  0
    6.9450   -0.3370    0.0000 H   0  0  0  0  0  0  0  0  0  0  0  0
    6.1490    0.0310    0.0000 H   0  0  0  0  0  0  0  0  0  0  0  0
    5.7810   -0.7650    0.0000 H   0  0  0  0  0  0  0  0  0  0  0  0
    3.2470   -1.9330    0.0000 H   0  0  0  0  0  0  0  0  0  0  0  0
    3.1980   -1.0570    0.0000 H   0  0  0  0  0  0  0  0  0  0  0  0
    4.0740   -1.0080    0.0000 H   0  0  0  0  0  0  0  0  0  0  0  0
    3.5940    2.2660    0.0000 H   0  0  0  0  0  0  0  0  0  0  0  0
    3.7430    3.1290    0.0000 H   0  0  0  0  0  0  0  0  0  0  0  0
    4.6070    2.9800    0.0000 H   0  0  0  0  0  0  0  0  0  0  0  0
    9.5140    0.1070    0.0000 H   0  0  0  0  0  0  0  0  0  0  0  0
   10.0190   -0.6100    0.0000 H   0  0  0  0  0  0  0  0  0  0  0  0
    9.3020   -1.1140    0.0000 H   0  0  0  0  0  0  0  0  0  0  0  0
    4.4810   -2.0020    0.0000 H   0  0  0  0  0  0  0  0  0  0  0  0
    5.3450   -2.1520    0.0000 H   0  0  0  0  0  0  0  0  0  0  0  0
    5.4950   -1.2880    0.0000 H   0  0  0  0  0  0  0  0  0  0  0  0
    4.0590    1.7490    0.0000 H   0  0  0  0  0  0  0  0  0  0  0  0
    8.8200    0.1430    0.0000 H   0  0  0  0  0  0  0  0  0  0  0  0
    7.1060    2.6420    0.0000 H   0  0  0  0  0  0  0  0  0  0  0  0
    4.1520   -1.3900    0.0000 H   0  0  0  0  0  0  0  0  0  0  0  0
    5.9510   -3.1230    0.0000 H   0  0  0  0  0  0  0  0  0  0  0  0
    4.0320   -3.2970    0.0000 H   0  0  0  0  0  0  0  0  0  0  0  0
    2.6810   -2.9610    0.0000 H   0  0  0  0  0  0  0  0  0  0  0  0
    3.6290   -3.6720    0.0000 H   0  0  0  0  0  0  0  0  0  0  0  0
    7.5710   -3.1570    0.0000 H   0  0  0  0  0  0  0  0  0  0  0  0
    6.4160   -3.4200    0.0000 H   0  0  0  0  0  0  0  0  0  0  0  0
    2.3950   -5.7410    0.0000 H   0  0  0  0  0  0  0  0  0  0  0  0
   10.3520    4.5590    0.0000 H   0  0  0  0  0  0  0  0  0  0  0  0
    7.8060    5.7370    0.0000 H   0  0  0  0  0  0  0  0  0  0  0  0
    5.2010   -4.1210    0.0000 H   0  0  0  0  0  0  0  0  0  0  0  0
    5.1630   -5.0620    0.0000 H   0  0  0  0  0  0  0  0  0  0  0  0
    6.9350   -6.2650    0.0000 H   0  0  0  0  0  0  0  0  0  0  0  0
    9.6710    3.0890    0.0000 H   0  0  0  0  0  0  0  0  0  0  0  0
    7.1250    4.2670    0.0000 H   0  0  0  0  0  0  0  0  0  0  0  0
    3.7980   -3.3110    0.0000 H   0  0  0  0  0  0  0  0  0  0  0  0
    5.9290   -3.9750    0.0000 H   0  0  0  0  0  0  0  0  0  0  0  0
    7.6580   -5.2390    0.0000 H   0  0  0  0  0  0  0  0  0  0  0  0
  1 39  1  0  0  0  0
  1 17  1  0  0  0  0
  2 38  1  0  0  0  0
  2 56  1  0  0  0  0
  3 41  1  0  0  0  0
  3 40  1  0  0  0  0
  4 32  2  0  0  0  0
  5 33  2  0  0  0  0
  6 34  2  0  0  0  0
  7 35  2  0  0  0  0
  8 36  2  0  0  0  0
  9 37  2  0  0  0  0
 10 26  1  0  0  0  0
 10 18  1  0  0  0  0
 10 32  1  0  0  0  0
 11 33  1  0  0  0  0
 11 28  1  0  0  0  0
 11 19  1  0  0  0  0
 12 29  1  0  0  0  0
 12 20  1  0  0  0  0
 12 36  1  0  0  0  0
 13 35  1  0  0  0  0
 13 24  1  0  0  0  0
 13 57  1  0  0  0  0
 14 34  1  0  0  0  0
 14 25  1  0  0  0  0
 14 58  1  0  0  0  0
 15 37  1  0  0  0  0
 15 27  1  0  0  0  0
 15 59  1  0  0  0  0
 16 42  1  0  0  0  0
 16 26  1  0  0  0  0
 16 61  1  6  0  0  0
 16 60  1  1  0  0  0
 17 62  1  0  0  0  0
 17 63  1  0  0  0  0
 17 64  1  0  0  0  0
 18 65  1  0  0  0  0
 18 66  1  0  0  0  0
 18 67  1  0  0  0  0
 19 68  1  0  0  0  0
 19 69  1  0  0  0  0
 19 70  1  0  0  0  0
 20 71  1  0  0  0  0
 20 72  1  0  0  0  0
 20 73  1  0  0  0  0
 24 21  1  6  0  0  0
 21 76  1  0  0  0  0
 21 74  1  0  0  0  0
 21 75  1  0  0  0  0
 25 22  1  6  0  0  0
 22 79  1  0  0  0  0
 22 77  1  0  0  0  0
 22 78  1  0  0  0  0
 27 23  1  6  0  0  0
 23 82  1  0  0  0  0
 23 80  1  0  0  0  0
 23 81  1  0  0  0  0
 24 83  1  1  0  0  0
 24 32  1  0  0  0  0
 25 84  1  1  0  0  0
 25 33  1  0  0  0  0
 26 85  1  1  0  0  0
 26 34  1  0  0  0  0
 27 86  1  1  0  0  0
 27 35  1  0  0  0  0
 28 31  1  6  0  0  0
 28 87  1  1  0  0  0
 28 36  1  0  0  0  0
 29 30  1  6  0  0  0
 29 37  1  0  0  0  0
 29 88  1  1  0  0  0
 30 43  1  0  0  0  0
 30 90  1  0  0  0  0
 30 89  1  0  0  0  0
 31 92  1  0  0  0  0
 31 91  1  0  0  0  0
 31 44  1  0  0  0  0
 38 40  2  0  0  0  0
 38 48  1  0  0  0  0
 39 46  2  0  0  0  0
 39 47  1  0  0  0  0
 40 45  1  0  0  0  0
 41 49  2  0  0  0  0
 41 50  1  0  0  0  0
 42 51  2  0  0  0  0
 42 52  1  0  0  0  0
 43 53  1  0  0  0  0
 43 45  2  0  0  0  0
 44 54  2  0  0  0  0
 44 55  1  0  0  0  0
 45 93  1  0  0  0  0
 46 95  1  0  0  0  0
 46 51  1  0  0  0  0
 47 94  1  0  0  0  0
 47 52  2  0  0  0  0
 48 96  1  0  0  0  0
 48 53  2  0  0  0  0
 49 54  1  0  0  0  0
 49 97  1  0  0  0  0
 50 98  1  0  0  0  0
 50 55  2  0  0  0  0
 51100  1  0  0  0  0
 52 99  1  0  0  0  0
 53101  1  0  0  0  0
 54102  1  0  0  0  0
 55103  1  0  0  0  0
M  END
$$$$
38727
  MOE2005           2D

 46 48  0  0  0  0  0  0  0  0999 V2000
    6.0530    1.7010    0.0000 O   0  0  0  0  0  0  0  0  0  0  0  0
    2.8660    0.2020    0.0000 O   0  0  0  0  0  0  0  0  0  0  0  0
    6.4100   -1.6030    0.0000 O   0  0  0  0  0  0  0  0  0  0  0  0
    7.7000    1.1630    0.0000 O   0  0  0  0  0  0  0  0  0  0  0  0
    8.4940   -1.6640    0.0000 N   0  0  0  0  0  0  0  0  0  0  0  0
    6.3640    2.6520    0.0000 C   0  0  0  0  0  0  0  0  0  0  0  0
    7.9940   -0.7980    0.0000 C   0  0  0  0  0  0  0  0  0  0  0  0
    2.0000   -0.2980    0.0000 C   0  0  0  0  0  0  0  0  0  0  0  0
    5.6960    3.3960    0.0000 C   0  0  0  0  0  0  0  0  0  0  0  0
    7.9940   -2.5300    0.0000 C   0  0  0  0  0  0  0  0  0  0  0  0
    9.4940   -1.6640    0.0000 C   0  0  0  0  0  0  0  0  0  0  0  0
    8.4940   -3.3960    0.0000 C   0  0  0  0  0  0  0  0  0  0  0  0
    9.9940   -2.5300    0.0000 C   0  0  0  0  0  0  0  0  0  0  0  0
    9.4940   -3.3960    0.0000 C   0  0  0  0  0  0  0  0  0  0  0  0
    6.7210    0.9570    0.0000 C   0  0  0  0  0  0  0  0  0  0  0  0
    6.9940   -0.7980    0.0000 C   0  0  0  0  0  0  0  0  0  0  0  0
    3.7320   -0.2980    0.0000 C   0  0  0  0  0  0  0  0  0  0  0  0
    5.4640   -1.2980    0.0000 C   0  0  0  0  0  0  0  0  0  0  0  0
    6.4100    0.0070    0.0000 C   0  0  0  0  0  0  0  0  0  0  0  0
    5.4640   -0.2980    0.0000 C   0  0  0  0  0  0  0  0  0  0  0  0
    4.5980    0.2020    0.0000 C   0  0  0  0  0  0  0  0  0  0  0  0
    3.7320   -1.2980    0.0000 C   0  0  0  0  0  0  0  0  0  0  0  0
    4.5980   -1.7980    0.0000 C   0  0  0  0  0  0  0  0  0  0  0  0
    6.7460    3.1400    0.0000 H   0  0  0  0  0  0  0  0  0  0  0  0
    6.9110    2.3600    0.0000 H   0  0  0  0  0  0  0  0  0  0  0  0
    7.8860   -0.1880    0.0000 H   0  0  0  0  0  0  0  0  0  0  0  0
    8.5770   -0.5860    0.0000 H   0  0  0  0  0  0  0  0  0  0  0  0
    1.4630   -0.6080    0.0000 H   0  0  0  0  0  0  0  0  0  0  0  0
    2.3100   -0.8350    0.0000 H   0  0  0  0  0  0  0  0  0  0  0  0
    1.6900    0.2390    0.0000 H   0  0  0  0  0  0  0  0  0  0  0  0
    6.1570    3.8100    0.0000 H   0  0  0  0  0  0  0  0  0  0  0  0
    5.2820    3.8580    0.0000 H   0  0  0  0  0  0  0  0  0  0  0  0
    5.2350    2.9820    0.0000 H   0  0  0  0  0  0  0  0  0  0  0  0
   10.0770   -1.4520    0.0000 H   0  0  0  0  0  0  0  0  0  0  0  0
    9.3860   -1.0540    0.0000 H   0  0  0  0  0  0  0  0  0  0  0  0
    7.5190   -2.1320    0.0000 H   0  0  0  0  0  0  0  0  0  0  0  0
    7.5190   -2.9290    0.0000 H   0  0  0  0  0  0  0  0  0  0  0  0
   10.4690   -2.9290    0.0000 H   0  0  0  0  0  0  0  0  0  0  0  0
   10.4690   -2.1320    0.0000 H   0  0  0  0  0  0  0  0  0  0  0  0
    7.9110   -3.6080    0.0000 H   0  0  0  0  0  0  0  0  0  0  0  0
    8.6020   -4.0070    0.0000 H   0  0  0  0  0  0  0  0  0  0  0  0
   10.0770   -3.6080    0.0000 H   0  0  0  0  0  0  0  0  0  0  0  0
    9.3860   -4.0070    0.0000 H   0  0  0  0  0  0  0  0  0  0  0  0
    4.5980    0.8220    0.0000 H   0  0  0  0  0  0  0  0  0  0  0  0
    3.1950   -1.6080    0.0000 H   0  0  0  0  0  0  0  0  0  0  0  0
    4.5980   -2.4180    0.0000 H   0  0  0  0  0  0  0  0  0  0  0  0
  1  6  1  0  0  0  0
  1 15  1  0  0  0  0
  2 17  1  0  0  0  0
  2  8  1  0  0  0  0
  3 16  1  0  0  0  0
  3 18  1  0  0  0  0
  4 15  2  0  0  0  0
  5  7  1  0  0  0  0
  5 10  1  0  0  0  0
  5 11  1  0  0  0  0
  6  9  1  0  0  0  0
  6 24  1  0  0  0  0
  6 25  1  0  0  0  0
  7 16  1  0  0  0  0
  7 26  1  0  0  0  0
  7 27  1  0  0  0  0
  8 28  1  0  0  0  0
  8 29  1  0  0  0  0
  8 30  1  0  0  0  0
  9 31  1  0  0  0  0
  9 32  1  0  0  0  0
  9 33  1  0  0  0  0
 10 12  1  0  0  0  0
 10 36  1  0  0  0  0
 10 37  1  0  0  0  0
 11 35  1  0  0  0  0
 11 34  1  0  0  0  0
 11 13  1  0  0  0  0
 12 14  1  0  0  0  0
 12 40  1  0  0  0  0
 12 41  1  0  0  0  0
 13 14  1  0  0  0  0
 13 38  1  0  0  0  0
 13 39  1  0  0  0  0
 14 42  1  0  0  0  0
 14 43  1  0  0  0  0
 15 19  1  0  0  0  0
 16 19  2  0  0  0  0
 17 22  2  0  0  0  0
 17 21  1  0  0  0  0
 18 23  2  0  0  0  0
 18 20  1  0  0  0  0
 19 20  1  0  0  0  0
 20 21  2  0  0  0  0
 21 44  1  0  0  0  0
 22 23  1  0  0  0  0
 22 45  1  0  0  0  0
 23 46  1  0  0  0  0
M  END
$$$$
5284352
  MOE2005           2D

 83 89  0  0  1  0  0  0  0  0999 V2000
   12.8860    2.2280    0.0000 Br  0  0  0  0  0  0  0  0  0  0  0  0
    5.8070    9.2720    0.0000 O   0  0  0  0  0  0  0  0  0  0  0  0
    6.4030    8.2600    0.0000 O   0  0  0  0  0  0  0  0  0  0  0  0
    6.7880    5.2310    0.0000 O   0  0  0  0  0  0  0  0  0  0  0  0
    8.9190    7.6930    0.0000 O   0  0  0  0  0  0  0  0  0  0  0  0
    8.5560   11.6050    0.0000 O   0  0  0  0  0  0  0  0  0  0  0  0
    7.6480    6.7340    0.0000 N   0  0  0  0  0  0  0  0  0  0  0  0
   10.3200    5.2310    0.0000 N   0  0  0  0  0  0  0  0  0  0  0  0
    7.7970    9.0700    0.0000 N   0  0  0  0  0  0  0  0  0  0  0  0
    6.9760   10.8940    0.0000 N   0  0  0  0  0  0  0  0  0  0  0  0
   11.5020    1.1140    0.0000 N   0  0  0  0  0  0  0  0  0  0  0  0
    9.9610   10.5920    0.0000 C   0  0  0  0  0  0  0  0  0  0  0  0
    6.4790    6.8530    0.0000 C   0  0  0  0  0  0  0  0  0  0  0  0
    9.3760    9.7810    0.0000 C   0  0  1  0  0  0  0  0  0  0  0  0
   11.1920    5.7210    0.0000 C   0  0  0  0  0  0  0  0  0  0  0  0
   10.9560   10.4910    0.0000 C   0  0  0  0  0  0  0  0  0  0  0  0
    9.5510   11.5040    0.0000 C   0  0  0  0  0  0  0  0  0  0  0  0
    5.5000    7.0570    0.0000 C   0  0  0  0  0  0  0  0  0  0  0  0
    6.7920    5.9030    0.0000 C   0  0  0  0  0  0  0  0  0  0  0  0
    6.8020    9.1710    0.0000 C   0  0  1  0  0  0  0  0  0  0  0  0
    7.1450    7.5980    0.0000 C   0  0  2  0  0  0  0  0  0  0  0  0
    6.3910   10.0830    0.0000 C   0  0  2  0  0  0  0  0  0  0  0  0
    8.3810    9.8810    0.0000 C   0  0  1  0  0  0  0  0  0  0  0  0
   10.3040    4.1890    0.0000 C   0  0  3  0  0  0  0  0  0  0  0  0
    8.5200    5.2380    0.0000 C   0  0  2  0  0  0  0  0  0  0  0  0
    9.4220    5.7590    0.0000 C   0  0  0  0  0  0  0  0  0  0  0  0
    6.3870   11.6950    0.0000 C   0  0  0  0  0  0  0  0  0  0  0  0
    5.4460   10.3890    0.0000 C   0  0  0  0  0  0  0  0  0  0  0  0
    5.4430   11.3830    0.0000 C   0  0  0  0  0  0  0  0  0  0  0  0
   11.1700    3.6890    0.0000 C   0  0  0  0  0  0  0  0  0  0  0  0
    7.6520    5.7340    0.0000 C   0  0  0  0  0  0  0  0  0  0  0  0
    8.0050    8.0980    0.0000 C   0  0  0  0  0  0  0  0  0  0  0  0
    7.9710   10.7930    0.0000 C   0  0  0  0  0  0  0  0  0  0  0  0
    9.4380    3.6890    0.0000 C   0  0  0  0  0  0  0  0  0  0  0  0
    8.5280    4.1960    0.0000 C   0  0  0  0  0  0  0  0  0  0  0  0
   11.9070    2.0220    0.0000 C   0  0  0  0  0  0  0  0  0  0  0  0
   10.3200    1.1480    0.0000 C   0  0  0  0  0  0  0  0  0  0  0  0
   11.1700    2.6890    0.0000 C   0  0  0  0  0  0  0  0  0  0  0  0
    9.4380    2.6890    0.0000 C   0  0  0  0  0  0  0  0  0  0  0  0
   10.3040    2.1890    0.0000 C   0  0  0  0  0  0  0  0  0  0  0  0
    9.4220    0.6200    0.0000 C   0  0  0  0  0  0  0  0  0  0  0  0
    8.5280    2.1820    0.0000 C   0  0  0  0  0  0  0  0  0  0  0  0
    8.5200    1.1410    0.0000 C   0  0  0  0  0  0  0  0  0  0  0  0
    5.4440    8.7690    0.0000 H   0  0  0  0  0  0  0  0  0  0  0  0
    8.1840    7.0460    0.0000 H   0  0  0  0  0  0  0  0  0  0  0  0
   11.8120    0.5780    0.0000 H   0  0  0  0  0  0  0  0  0  0  0  0
   10.2150   10.0270    0.0000 H   0  0  0  0  0  0  0  0  0  0  0  0
    6.2850    7.4420    0.0000 H   0  0  0  0  0  0  0  0  0  0  0  0
    9.2080    9.1840    0.0000 H   0  0  0  0  0  0  0  0  0  0  0  0
    9.9350    9.5110    0.0000 H   0  0  0  0  0  0  0  0  0  0  0  0
   10.8880    6.2610    0.0000 H   0  0  0  0  0  0  0  0  0  0  0  0
   11.7330    6.0250    0.0000 H   0  0  0  0  0  0  0  0  0  0  0  0
   11.4960    5.1800    0.0000 H   0  0  0  0  0  0  0  0  0  0  0  0
    8.9850   11.2500    0.0000 H   0  0  0  0  0  0  0  0  0  0  0  0
    9.2960   12.0690    0.0000 H   0  0  0  0  0  0  0  0  0  0  0  0
   10.1160   11.7580    0.0000 H   0  0  0  0  0  0  0  0  0  0  0  0
   11.0180   11.1080    0.0000 H   0  0  0  0  0  0  0  0  0  0  0  0
   11.5730   10.4290    0.0000 H   0  0  0  0  0  0  0  0  0  0  0  0
   10.8930    9.8750    0.0000 H   0  0  0  0  0  0  0  0  0  0  0  0
    7.3810    6.0970    0.0000 H   0  0  0  0  0  0  0  0  0  0  0  0
    6.9850    5.3140    0.0000 H   0  0  0  0  0  0  0  0  0  0  0  0
    6.2030    5.7090    0.0000 H   0  0  0  0  0  0  0  0  0  0  0  0
    5.3730    6.4500    0.0000 H   0  0  0  0  0  0  0  0  0  0  0  0
    4.8930    7.1840    0.0000 H   0  0  0  0  0  0  0  0  0  0  0  0
    5.6270    7.6640    0.0000 H   0  0  0  0  0  0  0  0  0  0  0  0
    5.8580    9.4870    0.0000 H   0  0  0  0  0  0  0  0  0  0  0  0
    8.6360    9.3160    0.0000 H   0  0  0  0  0  0  0  0  0  0  0  0
   10.8440    4.4950    0.0000 H   0  0  0  0  0  0  0  0  0  0  0  0
    8.5190    5.8580    0.0000 H   0  0  0  0  0  0  0  0  0  0  0  0
    9.8230    6.2310    0.0000 H   0  0  0  0  0  0  0  0  0  0  0  0
    9.0250    6.2350    0.0000 H   0  0  0  0  0  0  0  0  0  0  0  0
    6.9220   12.0080    0.0000 H   0  0  0  0  0  0  0  0  0  0  0  0
    6.1310   12.2600    0.0000 H   0  0  0  0  0  0  0  0  0  0  0  0
    5.3180    9.7820    0.0000 H   0  0  0  0  0  0  0  0  0  0  0  0
    4.8290   10.4520    0.0000 H   0  0  0  0  0  0  0  0  0  0  0  0
    4.8260   11.3160    0.0000 H   0  0  0  0  0  0  0  0  0  0  0  0
    5.3110   11.9890    0.0000 H   0  0  0  0  0  0  0  0  0  0  0  0
   11.3820    4.2720    0.0000 H   0  0  0  0  0  0  0  0  0  0  0  0
   11.7810    3.5820    0.0000 H   0  0  0  0  0  0  0  0  0  0  0  0
    7.9950    3.8800    0.0000 H   0  0  0  0  0  0  0  0  0  0  0  0
    9.4250    0.0000    0.0000 H   0  0  0  0  0  0  0  0  0  0  0  0
    7.9950    2.4990    0.0000 H   0  0  0  0  0  0  0  0  0  0  0  0
    7.9820    0.8330    0.0000 H   0  0  0  0  0  0  0  0  0  0  0  0
  1 36  1  0  0  0  0
 20  2  1  6  0  0  0
  2 44  1  0  0  0  0
  3 21  1  0  0  0  0
 20  3  1  1  0  0  0
  4 31  2  0  0  0  0
  5 32  2  0  0  0  0
  6 33  2  0  0  0  0
  7 31  1  0  0  0  0
 21  7  1  6  0  0  0
  7 45  1  0  0  0  0
  8 26  1  0  0  0  0
  8 15  1  0  0  0  0
  8 24  1  0  0  0  0
  9 32  1  0  0  0  0
  9 20  1  0  0  0  0
  9 23  1  0  0  0  0
 10 22  1  0  0  0  0
 10 33  1  0  0  0  0
 10 27  1  0  0  0  0
 11 36  1  0  0  0  0
 11 37  1  0  0  0  0
 11 46  1  0  0  0  0
 12 14  1  0  0  0  0
 12 16  1  0  0  0  0
 12 17  1  0  0  0  0
 12 47  1  0  0  0  0
 21 13  1  1  0  0  0
 13 18  1  0  0  0  0
 13 19  1  0  0  0  0
 13 48  1  0  0  0  0
 14 23  1  0  0  0  0
 14 50  1  1  0  0  0
 14 49  1  6  0  0  0
 15 51  1  0  0  0  0
 15 52  1  0  0  0  0
 15 53  1  0  0  0  0
 16 57  1  0  0  0  0
 16 58  1  0  0  0  0
 16 59  1  0  0  0  0
 17 54  1  0  0  0  0
 17 55  1  0  0  0  0
 17 56  1  0  0  0  0
 18 63  1  0  0  0  0
 18 64  1  0  0  0  0
 18 65  1  0  0  0  0
 19 60  1  0  0  0  0
 19 61  1  0  0  0  0
 19 62  1  0  0  0  0
 20 22  1  0  0  0  0
 21 32  1  0  0  0  0
 22 66  1  1  0  0  0
 22 28  1  6  0  0  0
 23 67  1  1  0  0  0
 23 33  1  0  0  0  0
 24 34  1  0  0  0  0
 24 30  1  0  0  0  0
 24 68  1  0  0  0  0
 25 35  1  0  0  0  0
 25 26  1  0  0  0  0
 25 31  1  1  0  0  0
 25 69  1  6  0  0  0
 26 70  1  0  0  0  0
 26 71  1  0  0  0  0
 27 29  1  0  0  0  0
 27 73  1  0  0  0  0
 27 72  1  0  0  0  0
 28 75  1  0  0  0  0
 28 74  1  0  0  0  0
 28 29  1  0  0  0  0
 29 76  1  0  0  0  0
 29 77  1  0  0  0  0
 30 79  1  0  0  0  0
 30 78  1  0  0  0  0
 30 38  1  0  0  0  0
 34 39  1  0  0  0  0
 34 35  2  0  0  0  0
 35 80  1  0  0  0  0
 36 38  2  0  0  0  0
 37 41  1  0  0  0  0
 37 40  2  0  0  0  0
 38 40  1  0  0  0  0
 39 42  2  0  0  0  0
 39 40  1  0  0  0  0
 41 81  1  0  0  0  0
 41 43  2  0  0  0  0
 42 43  1  0  0  0  0
 42 82  1  0  0  0  0
 43 83  1  0  0  0  0
M  END
$$$$
5388983
  MOE2005           2D

117125  0  0  1  0  0  0  0  0999 V2000
   10.2010    2.1550    0.0000 O   0  0  0  0  0  0  0  0  0  0  0  0
   12.2110    3.4410    0.0000 O   0  0  0  0  0  0  0  0  0  0  0  0
    9.9190    7.2870    0.0000 O   0  0  0  0  0  0  0  0  0  0  0  0
   11.5710    8.6000    0.0000 O   0  0  0  0  0  0  0  0  0  0  0  0
   13.0530   11.6640    0.0000 O   0  0  0  0  0  0  0  0  0  0  0  0
   11.4680    4.1100    0.0000 O   0  0  0  0  0  0  0  0  0  0  0  0
   11.4880    0.9960    0.0000 O   0  0  0  0  0  0  0  0  0  0  0  0
   12.0030    2.4620    0.0000 O   0  0  0  0  0  0  0  0  0  0  0  0
    8.6340    7.3320    0.0000 O   0  0  0  0  0  0  0  0  0  0  0  0
   10.2770   11.8190    0.0000 N   0  0  0  0  0  0  0  0  0  0  0  0
    7.7740    4.3840    0.0000 N   0  0  0  0  0  0  0  0  0  0  0  0
   10.8540    5.3840    0.0000 N   0  0  0  0  0  0  0  0  0  0  0  0
    8.0580    8.6640    0.0000 N   0  0  0  0  0  0  0  0  0  0  0  0
   12.5830   12.5470    0.0000 C   0  0  0  0  0  0  0  0  0  0  0  0
    9.2860    2.3490    0.0000 C   0  0  1  0  0  0  0  0  0  0  0  0
   12.9540    2.7710    0.0000 C   0  0  0  0  0  0  0  0  0  0  0  0
   11.0580    7.4470    0.0000 C   0  0  0  0  0  0  0  0  0  0  0  0
   12.5490    8.3920    0.0000 C   0  0  0  0  0  0  0  0  0  0  0  0
   11.8050    5.6930    0.0000 C   0  0  0  0  0  0  0  0  0  0  0  0
   12.1140   13.4300    0.0000 C   0  0  0  0  0  0  0  0  0  0  0  0
    8.6170    1.6060    0.0000 C   0  0  0  0  0  0  0  0  0  0  0  0
    9.8400    0.4610    0.0000 C   0  0  0  0  0  0  0  0  0  0  0  0
   12.0530   11.6990    0.0000 C   0  0  2  0  0  0  0  0  0  0  0  0
   10.5170    3.8010    0.0000 C   0  0  2  0  0  0  0  0  0  0  0  0
    8.9770    3.3000    0.0000 C   0  0  2  0  0  0  0  0  0  0  0  0
    9.3140    4.8840    0.0000 C   0  0  2  0  0  0  0  0  0  0  0  0
    9.6780    9.0020    0.0000 C   0  0  1  0  0  0  0  0  0  0  0  0
    9.8920    3.1060    0.0000 C   0  0  1  0  0  0  0  0  0  0  0  0
   10.2280    4.6900    0.0000 C   0  0  1  0  0  0  0  0  0  0  0  0
    8.6880    4.1890    0.0000 C   0  0  1  0  0  0  0  0  0  0  0  0
   11.1590   10.1590    0.0000 C   0  0  1  0  0  0  0  0  0  0  0  0
   11.1980   12.2530    0.0000 C   0  0  0  0  0  0  0  0  0  0  0  0
   11.0200   11.1500    0.0000 C   0  0  0  0  0  0  0  0  0  0  0  0
    7.4850    5.2730    0.0000 C   0  0  0  0  0  0  0  0  0  0  0  0
    9.2770   11.8540    0.0000 C   0  0  0  0  0  0  0  0  0  0  0  0
   12.0340   10.6810    0.0000 C   0  0  0  0  0  0  0  0  0  0  0  0
   10.6290    9.3110    0.0000 C   0  0  0  0  0  0  0  0  0  0  0  0
    8.9290    5.9200    0.0000 C   0  0  2  0  0  0  0  0  0  0  0  0
    7.1490    3.6890    0.0000 C   0  0  0  0  0  0  0  0  0  0  0  0
    8.4890   11.2380    0.0000 C   0  0  0  0  0  0  0  0  0  0  0  0
   10.5100    1.2040    0.0000 C   0  0  0  0  0  0  0  0  0  0  0  0
   11.2600    3.1320    0.0000 C   0  0  0  0  0  0  0  0  0  0  0  0
    9.3030    8.0750    0.0000 C   0  0  0  0  0  0  0  0  0  0  0  0
    8.3520    2.6060    0.0000 C   0  0  0  0  0  0  0  0  0  0  0  0
    7.4380    2.8000    0.0000 C   0  0  0  0  0  0  0  0  0  0  0  0
    8.7510    9.3770    0.0000 C   0  0  0  0  0  0  0  0  0  0  0  0
   10.9010    7.8570    0.0000 C   0  0  0  0  0  0  0  0  0  0  0  0
   10.5650    6.2730    0.0000 C   0  0  0  0  0  0  0  0  0  0  0  0
    7.1650    9.1000    0.0000 C   0  0  0  0  0  0  0  0  0  0  0  0
    8.2810   10.2600    0.0000 C   0  0  0  0  0  0  0  0  0  0  0  0
    9.9870    8.0510    0.0000 C   0  0  0  0  0  0  0  0  0  0  0  0
    9.6500    6.4680    0.0000 C   0  0  0  0  0  0  0  0  0  0  0  0
    7.3030   10.0850    0.0000 C   0  0  0  0  0  0  0  0  0  0  0  0
   11.1900    6.9680    0.0000 C   0  0  0  0  0  0  0  0  0  0  0  0
    9.3620    7.3570    0.0000 C   0  0  0  0  0  0  0  0  0  0  0  0
    6.2120    8.6970    0.0000 C   0  0  0  0  0  0  0  0  0  0  0  0
    6.4960   10.7340    0.0000 C   0  0  0  0  0  0  0  0  0  0  0  0
    5.3900    9.3270    0.0000 C   0  0  0  0  0  0  0  0  0  0  0  0
    5.5340   10.3530    0.0000 C   0  0  0  0  0  0  0  0  0  0  0  0
   13.3810   12.1900    0.0000 H   0  0  0  0  0  0  0  0  0  0  0  0
   11.8830    4.5700    0.0000 H   0  0  0  0  0  0  0  0  0  0  0  0
    7.7480    8.1270    0.0000 H   0  0  0  0  0  0  0  0  0  0  0  0
   13.0440   12.1320    0.0000 H   0  0  0  0  0  0  0  0  0  0  0  0
   13.0720   12.9290    0.0000 H   0  0  0  0  0  0  0  0  0  0  0  0
    9.8340    2.6400    0.0000 H   0  0  0  0  0  0  0  0  0  0  0  0
    9.6680    1.8610    0.0000 H   0  0  0  0  0  0  0  0  0  0  0  0
   13.3690    3.2320    0.0000 H   0  0  0  0  0  0  0  0  0  0  0  0
   13.4150    2.3570    0.0000 H   0  0  0  0  0  0  0  0  0  0  0  0
   12.5400    2.3110    0.0000 H   0  0  0  0  0  0  0  0  0  0  0  0
   10.9720    8.0610    0.0000 H   0  0  0  0  0  0  0  0  0  0  0  0
   11.6720    7.5330    0.0000 H   0  0  0  0  0  0  0  0  0  0  0  0
   11.1440    6.8330    0.0000 H   0  0  0  0  0  0  0  0  0  0  0  0
   12.6780    8.9990    0.0000 H   0  0  0  0  0  0  0  0  0  0  0  0
   13.1550    8.2630    0.0000 H   0  0  0  0  0  0  0  0  0  0  0  0
   12.4200    7.7860    0.0000 H   0  0  0  0  0  0  0  0  0  0  0  0
   11.6130    6.2830    0.0000 H   0  0  0  0  0  0  0  0  0  0  0  0
   12.3940    5.8850    0.0000 H   0  0  0  0  0  0  0  0  0  0  0  0
   11.9960    5.1040    0.0000 H   0  0  0  0  0  0  0  0  0  0  0  0
   11.8230   13.9780    0.0000 H   0  0  0  0  0  0  0  0  0  0  0  0
   12.6610   13.7210    0.0000 H   0  0  0  0  0  0  0  0  0  0  0  0
   11.5660   13.1390    0.0000 H   0  0  0  0  0  0  0  0  0  0  0  0
    8.1560    2.0210    0.0000 H   0  0  0  0  0  0  0  0  0  0  0  0
    8.2020    1.1450    0.0000 H   0  0  0  0  0  0  0  0  0  0  0  0
    9.0780    1.1910    0.0000 H   0  0  0  0  0  0  0  0  0  0  0  0
    9.3800    0.8760    0.0000 H   0  0  0  0  0  0  0  0  0  0  0  0
    9.4260    0.0000    0.0000 H   0  0  0  0  0  0  0  0  0  0  0  0
   10.3010    0.0460    0.0000 H   0  0  0  0  0  0  0  0  0  0  0  0
   10.4980    2.9770    0.0000 H   0  0  0  0  0  0  0  0  0  0  0  0
   11.0110    4.5230    0.0000 H   0  0  0  0  0  0  0  0  0  0  0  0
    8.4410    4.9500    0.0000 H   0  0  0  0  0  0  0  0  0  0  0  0
   11.5830   10.8380    0.0000 H   0  0  0  0  0  0  0  0  0  0  0  0
   10.8350   12.7550    0.0000 H   0  0  0  0  0  0  0  0  0  0  0  0
   11.6250   12.7020    0.0000 H   0  0  0  0  0  0  0  0  0  0  0  0
   11.2850   11.7100    0.0000 H   0  0  0  0  0  0  0  0  0  0  0  0
   11.6330   11.0560    0.0000 H   0  0  0  0  0  0  0  0  0  0  0  0
    7.2520    5.8470    0.0000 H   0  0  0  0  0  0  0  0  0  0  0  0
    6.9030    5.0600    0.0000 H   0  0  0  0  0  0  0  0  0  0  0  0
    9.4760   12.4410    0.0000 H   0  0  0  0  0  0  0  0  0  0  0  0
    8.7720   12.2120    0.0000 H   0  0  0  0  0  0  0  0  0  0  0  0
   12.2480   10.0990    0.0000 H   0  0  0  0  0  0  0  0  0  0  0  0
   12.6460   10.7830    0.0000 H   0  0  0  0  0  0  0  0  0  0  0  0
   10.6440    8.6910    0.0000 H   0  0  0  0  0  0  0  0  0  0  0  0
   11.2270    9.1470    0.0000 H   0  0  0  0  0  0  0  0  0  0  0  0
    9.5050    6.1480    0.0000 H   0  0  0  0  0  0  0  0  0  0  0  0
    8.6880    6.4910    0.0000 H   0  0  0  0  0  0  0  0  0  0  0  0
    6.7670    4.1780    0.0000 H   0  0  0  0  0  0  0  0  0  0  0  0
    6.6010    3.3980    0.0000 H   0  0  0  0  0  0  0  0  0  0  0  0
    7.8710   11.1880    0.0000 H   0  0  0  0  0  0  0  0  0  0  0  0
    8.2640   11.8150    0.0000 H   0  0  0  0  0  0  0  0  0  0  0  0
    8.5430    2.0160    0.0000 H   0  0  0  0  0  0  0  0  0  0  0  0
    7.0230    2.3390    0.0000 H   0  0  0  0  0  0  0  0  0  0  0  0
   11.7970    6.8390    0.0000 H   0  0  0  0  0  0  0  0  0  0  0  0
    8.7550    7.4850    0.0000 H   0  0  0  0  0  0  0  0  0  0  0  0
    6.1330    8.0820    0.0000 H   0  0  0  0  0  0  0  0  0  0  0  0
    6.5890   11.3470    0.0000 H   0  0  0  0  0  0  0  0  0  0  0  0
    4.8170    9.0920    0.0000 H   0  0  0  0  0  0  0  0  0  0  0  0
    5.0460   10.7360    0.0000 H   0  0  0  0  0  0  0  0  0  0  0  0
  1 41  1  0  0  0  0
 28  1  1  6  0  0  0
  2 42  1  0  0  0  0
  2 16  1  0  0  0  0
  3 43  1  0  0  0  0
  3 17  1  0  0  0  0
  4 47  1  0  0  0  0
  4 18  1  0  0  0  0
 23  5  1  1  0  0  0
  5 60  1  0  0  0  0
 24  6  1  6  0  0  0
  6 61  1  0  0  0  0
  7 41  2  0  0  0  0
  8 42  2  0  0  0  0
  9 43  2  0  0  0  0
 10 35  1  0  0  0  0
 10 33  1  0  0  0  0
 10 32  1  0  0  0  0
 30 11  1  6  0  0  0
 11 39  1  0  0  0  0
 11 34  1  0  0  0  0
 29 12  1  1  0  0  0
 12 48  1  0  0  0  0
 12 19  1  0  0  0  0
 13 46  1  0  0  0  0
 13 62  1  0  0  0  0
 13 49  1  0  0  0  0
 23 14  1  6  0  0  0
 14 20  1  0  0  0  0
 14 64  1  0  0  0  0
 14 63  1  0  0  0  0
 25 15  1  1  0  0  0
 15 21  1  0  0  0  0
 15 66  1  6  0  0  0
 15 65  1  1  0  0  0
 16 67  1  0  0  0  0
 16 68  1  0  0  0  0
 16 69  1  0  0  0  0
 17 70  1  0  0  0  0
 17 71  1  0  0  0  0
 17 72  1  0  0  0  0
 18 73  1  0  0  0  0
 18 74  1  0  0  0  0
 18 75  1  0  0  0  0
 19 76  1  0  0  0  0
 19 77  1  0  0  0  0
 19 78  1  0  0  0  0
 20 79  1  0  0  0  0
 20 80  1  0  0  0  0
 20 81  1  0  0  0  0
 21 82  1  0  0  0  0
 21 83  1  0  0  0  0
 21 84  1  0  0  0  0
 22 41  1  0  0  0  0
 22 87  1  0  0  0  0
 22 85  1  0  0  0  0
 22 86  1  0  0  0  0
 23 36  1  0  0  0  0
 23 32  1  0  0  0  0
 24 28  1  0  0  0  0
 24 42  1  1  0  0  0
 24 29  1  0  0  0  0
 25 28  1  0  0  0  0
 25 30  1  0  0  0  0
 25 44  1  6  0  0  0
 26 30  1  0  0  0  0
 26 29  1  0  0  0  0
 26 52  1  1  0  0  0
 26 38  1  6  0  0  0
 27 51  1  6  0  0  0
 27 46  1  0  0  0  0
 27 43  1  1  0  0  0
 27 37  1  0  0  0  0
 28 88  1  1  0  0  0
 29 89  1  6  0  0  0
 30 90  1  1  0  0  0
 31 33  1  1  0  0  0
 31 36  1  0  0  0  0
 31 91  1  6  0  0  0
 31 37  1  0  0  0  0
 32 92  1  0  0  0  0
 32 93  1  0  0  0  0
 33 94  1  0  0  0  0
 33 95  1  0  0  0  0
 34 38  1  0  0  0  0
 34 97  1  0  0  0  0
 34 96  1  0  0  0  0
 35 40  1  0  0  0  0
 35 99  1  0  0  0  0
 35 98  1  0  0  0  0
 36100  1  0  0  0  0
 36101  1  0  0  0  0
 37102  1  0  0  0  0
 37103  1  0  0  0  0
 38104  1  6  0  0  0
 38105  1  1  0  0  0
 39107  1  0  0  0  0
 39106  1  0  0  0  0
 39 45  1  0  0  0  0
 40 50  1  0  0  0  0
 40109  1  0  0  0  0
 40108  1  0  0  0  0
 44110  1  0  0  0  0
 44 45  2  0  0  0  0
 45111  1  0  0  0  0
 46 50  2  0  0  0  0
 47 54  2  0  0  0  0
 47 51  1  0  0  0  0
 48 54  1  0  0  0  0
 48 52  2  0  0  0  0
 49 53  2  0  0  0  0
 49 56  1  0  0  0  0
 50 53  1  0  0  0  0
 51 55  2  0  0  0  0
 52 55  1  0  0  0  0
 53 57  1  0  0  0  0
 54112  1  0  0  0  0
 55113  1  0  0  0  0
 56 58  2  0  0  0  0
 56114  1  0  0  0  0
 57115  1  0  0  0  0
 57 59  2  0  0  0  0
 58 59  1  0  0  0  0
 58116  1  0  0  0  0
 59117  1  0  0  0  0
M  END
$$$$
5388992
  MOE2005           2D

116124  0  0  1  0  0  0  0  0999 V2000
   10.2000    2.1550    0.0000 O   0  0  0  0  0  0  0  0  0  0  0  0
   12.2110    3.4410    0.0000 O   0  0  0  0  0  0  0  0  0  0  0  0
    9.9190    7.2870    0.0000 O   0  0  0  0  0  0  0  0  0  0  0  0
   11.5700    8.6000    0.0000 O   0  0  0  0  0  0  0  0  0  0  0  0
   13.0530   11.6640    0.0000 O   0  0  0  0  0  0  0  0  0  0  0  0
   11.4680    4.1100    0.0000 O   0  0  0  0  0  0  0  0  0  0  0  0
   11.4880    0.9960    0.0000 O   0  0  0  0  0  0  0  0  0  0  0  0
   12.0030    2.4620    0.0000 O   0  0  0  0  0  0  0  0  0  0  0  0
    8.6340    7.3320    0.0000 O   0  0  0  0  0  0  0  0  0  0  0  0
   12.5480    5.0240    0.0000 O   0  0  0  0  0  0  0  0  0  0  0  0
   10.2770   11.8190    0.0000 N   0  0  0  0  0  0  0  0  0  0  0  0
    7.7740    4.3840    0.0000 N   0  0  0  0  0  0  0  0  0  0  0  0
   10.8530    5.3840    0.0000 N   0  0  0  0  0  0  0  0  0  0  0  0
    8.0580    8.6640    0.0000 N   0  0  0  0  0  0  0  0  0  0  0  0
   12.5830   12.5470    0.0000 C   0  0  0  0  0  0  0  0  0  0  0  0
    9.2860    2.3490    0.0000 C   0  0  1  0  0  0  0  0  0  0  0  0
   12.9540    2.7710    0.0000 C   0  0  0  0  0  0  0  0  0  0  0  0
   11.0580    7.4470    0.0000 C   0  0  0  0  0  0  0  0  0  0  0  0
   12.5490    8.3920    0.0000 C   0  0  0  0  0  0  0  0  0  0  0  0
   12.1140   13.4300    0.0000 C   0  0  0  0  0  0  0  0  0  0  0  0
    8.6170    1.6060    0.0000 C   0  0  0  0  0  0  0  0  0  0  0  0
    9.8400    0.4610    0.0000 C   0  0  0  0  0  0  0  0  0  0  0  0
   12.0530   11.6990    0.0000 C   0  0  2  0  0  0  0  0  0  0  0  0
   10.5170    3.8010    0.0000 C   0  0  2  0  0  0  0  0  0  0  0  0
    8.9770    3.3000    0.0000 C   0  0  2  0  0  0  0  0  0  0  0  0
    9.3140    4.8840    0.0000 C   0  0  2  0  0  0  0  0  0  0  0  0
    9.6780    9.0020    0.0000 C   0  0  1  0  0  0  0  0  0  0  0  0
    9.8910    3.1060    0.0000 C   0  0  1  0  0  0  0  0  0  0  0  0
   10.2280    4.6900    0.0000 C   0  0  1  0  0  0  0  0  0  0  0  0
    8.6880    4.1890    0.0000 C   0  0  1  0  0  0  0  0  0  0  0  0
   11.1590   10.1590    0.0000 C   0  0  1  0  0  0  0  0  0  0  0  0
   11.1980   12.2530    0.0000 C   0  0  0  0  0  0  0  0  0  0  0  0
   11.0200   11.1500    0.0000 C   0  0  0  0  0  0  0  0  0  0  0  0
    7.4850    5.2730    0.0000 C   0  0  0  0  0  0  0  0  0  0  0  0
    9.2770   11.8540    0.0000 C   0  0  0  0  0  0  0  0  0  0  0  0
   12.0340   10.6810    0.0000 C   0  0  0  0  0  0  0  0  0  0  0  0
   10.6290    9.3110    0.0000 C   0  0  0  0  0  0  0  0  0  0  0  0
    8.9290    5.9200    0.0000 C   0  0  2  0  0  0  0  0  0  0  0  0
    7.1490    3.6890    0.0000 C   0  0  0  0  0  0  0  0  0  0  0  0
    8.4890   11.2380    0.0000 C   0  0  0  0  0  0  0  0  0  0  0  0
   10.5090    1.2040    0.0000 C   0  0  0  0  0  0  0  0  0  0  0  0
   11.2600    3.1320    0.0000 C   0  0  0  0  0  0  0  0  0  0  0  0
    9.3030    8.0750    0.0000 C   0  0  0  0  0  0  0  0  0  0  0  0
   11.8050    5.6930    0.0000 C   0  0  0  0  0  0  0  0  0  0  0  0
    8.3520    2.6060    0.0000 C   0  0  0  0  0  0  0  0  0  0  0  0
    7.4370    2.8000    0.0000 C   0  0  0  0  0  0  0  0  0  0  0  0
    8.7510    9.3770    0.0000 C   0  0  0  0  0  0  0  0  0  0  0  0
   10.9010    7.8570    0.0000 C   0  0  0  0  0  0  0  0  0  0  0  0
   10.5650    6.2730    0.0000 C   0  0  0  0  0  0  0  0  0  0  0  0
    7.1650    9.1000    0.0000 C   0  0  0  0  0  0  0  0  0  0  0  0
    8.2810   10.2600    0.0000 C   0  0  0  0  0  0  0  0  0  0  0  0
    9.9870    8.0510    0.0000 C   0  0  0  0  0  0  0  0  0  0  0  0
    9.6500    6.4680    0.0000 C   0  0  0  0  0  0  0  0  0  0  0  0
    7.3030   10.0850    0.0000 C   0  0  0  0  0  0  0  0  0  0  0  0
   11.1900    6.9680    0.0000 C   0  0  0  0  0  0  0  0  0  0  0  0
    9.3620    7.3570    0.0000 C   0  0  0  0  0  0  0  0  0  0  0  0
    6.2120    8.6970    0.0000 C   0  0  0  0  0  0  0  0  0  0  0  0
    6.4960   10.7340    0.0000 C   0  0  0  0  0  0  0  0  0  0  0  0
    5.3900    9.3270    0.0000 C   0  0  0  0  0  0  0  0  0  0  0  0
    5.5330   10.3530    0.0000 C   0  0  0  0  0  0  0  0  0  0  0  0
   13.3810   12.1900    0.0000 H   0  0  0  0  0  0  0  0  0  0  0  0
   11.8830    4.5700    0.0000 H   0  0  0  0  0  0  0  0  0  0  0  0
    7.7470    8.1270    0.0000 H   0  0  0  0  0  0  0  0  0  0  0  0
   13.0440   12.1320    0.0000 H   0  0  0  0  0  0  0  0  0  0  0  0
   13.0720   12.9290    0.0000 H   0  0  0  0  0  0  0  0  0  0  0  0
    9.8340    2.6400    0.0000 H   0  0  0  0  0  0  0  0  0  0  0  0
    9.6680    1.8610    0.0000 H   0  0  0  0  0  0  0  0  0  0  0  0
   13.3690    3.2320    0.0000 H   0  0  0  0  0  0  0  0  0  0  0  0
   13.4150    2.3570    0.0000 H   0  0  0  0  0  0  0  0  0  0  0  0
   12.5390    2.3110    0.0000 H   0  0  0  0  0  0  0  0  0  0  0  0
   11.1440    6.8330    0.0000 H   0  0  0  0  0  0  0  0  0  0  0  0
   11.6720    7.5330    0.0000 H   0  0  0  0  0  0  0  0  0  0  0  0
   10.9720    8.0610    0.0000 H   0  0  0  0  0  0  0  0  0  0  0  0
   12.6770    8.9990    0.0000 H   0  0  0  0  0  0  0  0  0  0  0  0
   13.1550    8.2630    0.0000 H   0  0  0  0  0  0  0  0  0  0  0  0
   12.4200    7.7860    0.0000 H   0  0  0  0  0  0  0  0  0  0  0  0
   11.8230   13.9780    0.0000 H   0  0  0  0  0  0  0  0  0  0  0  0
   12.6610   13.7210    0.0000 H   0  0  0  0  0  0  0  0  0  0  0  0
   11.5660   13.1390    0.0000 H   0  0  0  0  0  0  0  0  0  0  0  0
    8.1560    2.0210    0.0000 H   0  0  0  0  0  0  0  0  0  0  0  0
    8.2020    1.1450    0.0000 H   0  0  0  0  0  0  0  0  0  0  0  0
    9.0780    1.1910    0.0000 H   0  0  0  0  0  0  0  0  0  0  0  0
    9.3800    0.8760    0.0000 H   0  0  0  0  0  0  0  0  0  0  0  0
    9.4250    0.0000    0.0000 H   0  0  0  0  0  0  0  0  0  0  0  0
   10.3010    0.0460    0.0000 H   0  0  0  0  0  0  0  0  0  0  0  0
   10.4980    2.9770    0.0000 H   0  0  0  0  0  0  0  0  0  0  0  0
   11.0110    4.5230    0.0000 H   0  0  0  0  0  0  0  0  0  0  0  0
    8.4410    4.9500    0.0000 H   0  0  0  0  0  0  0  0  0  0  0  0
   11.5830   10.8380    0.0000 H   0  0  0  0  0  0  0  0  0  0  0  0
   10.8350   12.7550    0.0000 H   0  0  0  0  0  0  0  0  0  0  0  0
   11.6250   12.7020    0.0000 H   0  0  0  0  0  0  0  0  0  0  0  0
   11.2850   11.7100    0.0000 H   0  0  0  0  0  0  0  0  0  0  0  0
   11.6330   11.0560    0.0000 H   0  0  0  0  0  0  0  0  0  0  0  0
    7.2520    5.8470    0.0000 H   0  0  0  0  0  0  0  0  0  0  0  0
    6.9030    5.0600    0.0000 H   0  0  0  0  0  0  0  0  0  0  0  0
    9.4760   12.4410    0.0000 H   0  0  0  0  0  0  0  0  0  0  0  0
    8.7710   12.2120    0.0000 H   0  0  0  0  0  0  0  0  0  0  0  0
   12.2480   10.0990    0.0000 H   0  0  0  0  0  0  0  0  0  0  0  0
   12.6460   10.7830    0.0000 H   0  0  0  0  0  0  0  0  0  0  0  0
   11.2270    9.1470    0.0000 H   0  0  0  0  0  0  0  0  0  0  0  0
   10.6430    8.6910    0.0000 H   0  0  0  0  0  0  0  0  0  0  0  0
    9.5050    6.1480    0.0000 H   0  0  0  0  0  0  0  0  0  0  0  0
    8.6870    6.4910    0.0000 H   0  0  0  0  0  0  0  0  0  0  0  0
    6.6010    3.3980    0.0000 H   0  0  0  0  0  0  0  0  0  0  0  0
    6.7670    4.1780    0.0000 H   0  0  0  0  0  0  0  0  0  0  0  0
    8.2640   11.8150    0.0000 H   0  0  0  0  0  0  0  0  0  0  0  0
    7.8710   11.1880    0.0000 H   0  0  0  0  0  0  0  0  0  0  0  0
   11.9330    6.3000    0.0000 H   0  0  0  0  0  0  0  0  0  0  0  0
    8.5430    2.0160    0.0000 H   0  0  0  0  0  0  0  0  0  0  0  0
    7.0230    2.3390    0.0000 H   0  0  0  0  0  0  0  0  0  0  0  0
   11.7970    6.8390    0.0000 H   0  0  0  0  0  0  0  0  0  0  0  0
    8.7550    7.4850    0.0000 H   0  0  0  0  0  0  0  0  0  0  0  0
    6.1330    8.0820    0.0000 H   0  0  0  0  0  0  0  0  0  0  0  0
    6.5890   11.3470    0.0000 H   0  0  0  0  0  0  0  0  0  0  0  0
    4.8160    9.0920    0.0000 H   0  0  0  0  0  0  0  0  0  0  0  0
    5.0460   10.7360    0.0000 H   0  0  0  0  0  0  0  0  0  0  0  0
  1 41  1  0  0  0  0
 28  1  1  6  0  0  0
  2 42  1  0  0  0  0
  2 17  1  0  0  0  0
  3 43  1  0  0  0  0
  3 18  1  0  0  0  0
  4 48  1  0  0  0  0
  4 19  1  0  0  0  0
 23  5  1  1  0  0  0
  5 61  1  0  0  0  0
 24  6  1  6  0  0  0
  6 62  1  0  0  0  0
  7 41  2  0  0  0  0
  8 42  2  0  0  0  0
  9 43  2  0  0  0  0
 10 44  2  0  0  0  0
 11 35  1  0  0  0  0
 11 33  1  0  0  0  0
 11 32  1  0  0  0  0
 30 12  1  6  0  0  0
 12 39  1  0  0  0  0
 12 34  1  0  0  0  0
 29 13  1  1  0  0  0
 13 49  1  0  0  0  0
 13 44  1  0  0  0  0
 14 47  1  0  0  0  0
 14 63  1  0  0  0  0
 14 50  1  0  0  0  0
 23 15  1  6  0  0  0
 15 20  1  0  0  0  0
 15 65  1  0  0  0  0
 15 64  1  0  0  0  0
 25 16  1  1  0  0  0
 16 21  1  0  0  0  0
 16 67  1  6  0  0  0
 16 66  1  1  0  0  0
 17 68  1  0  0  0  0
 17 69  1  0  0  0  0
 17 70  1  0  0  0  0
 18 71  1  0  0  0  0
 18 72  1  0  0  0  0
 18 73  1  0  0  0  0
 19 74  1  0  0  0  0
 19 75  1  0  0  0  0
 19 76  1  0  0  0  0
 20 77  1  0  0  0  0
 20 78  1  0  0  0  0
 20 79  1  0  0  0  0
 21 80  1  0  0  0  0
 21 81  1  0  0  0  0
 21 82  1  0  0  0  0
 22 41  1  0  0  0  0
 22 85  1  0  0  0  0
 22 83  1  0  0  0  0
 22 84  1  0  0  0  0
 23 36  1  0  0  0  0
 23 32  1  0  0  0  0
 24 28  1  0  0  0  0
 24 42  1  1  0  0  0
 24 29  1  0  0  0  0
 25 28  1  0  0  0  0
 25 30  1  0  0  0  0
 25 45  1  6  0  0  0
 26 30  1  0  0  0  0
 26 29  1  0  0  0  0
 26 53  1  1  0  0  0
 26 38  1  6  0  0  0
 27 52  1  6  0  0  0
 27 47  1  0  0  0  0
 27 43  1  1  0  0  0
 27 37  1  0  0  0  0
 28 86  1  1  0  0  0
 29 87  1  6  0  0  0
 30 88  1  1  0  0  0
 31 33  1  1  0  0  0
 31 36  1  0  0  0  0
 31 89  1  6  0  0  0
 31 37  1  0  0  0  0
 32 90  1  0  0  0  0
 32 91  1  0  0  0  0
 33 92  1  0  0  0  0
 33 93  1  0  0  0  0
 34 38  1  0  0  0  0
 34 95  1  0  0  0  0
 34 94  1  0  0  0  0
 35 40  1  0  0  0  0
 35 97  1  0  0  0  0
 35 96  1  0  0  0  0
 36 98  1  0  0  0  0
 36 99  1  0  0  0  0
 37100  1  0  0  0  0
 37101  1  0  0  0  0
 38102  1  6  0  0  0
 38103  1  1  0  0  0
 39105  1  0  0  0  0
 39104  1  0  0  0  0
 39 46  1  0  0  0  0
 40 51  1  0  0  0  0
 40107  1  0  0  0  0
 40106  1  0  0  0  0
 44108  1  0  0  0  0
 45109  1  0  0  0  0
 45 46  2  0  0  0  0
 46110  1  0  0  0  0
 47 51  2  0  0  0  0
 48 55  2  0  0  0  0
 48 52  1  0  0  0  0
 49 55  1  0  0  0  0
 49 53  2  0  0  0  0
 50 54  2  0  0  0  0
 50 57  1  0  0  0  0
 51 54  1  0  0  0  0
 52 56  2  0  0  0  0
 53 56  1  0  0  0  0
 54 58  1  0  0  0  0
 55111  1  0  0  0  0
 56112  1  0  0  0  0
 57 59  2  0  0  0  0
 57113  1  0  0  0  0
 58114  1  0  0  0  0
 58 60  2  0  0  0  0
 59 60  1  0  0  0  0
 59115  1  0  0  0  0
 60116  1  0  0  0  0
M  END
$$$$
5771666
  MOE2005           2D

 87 90  0  0  1  0  0  0  0  0999 V2000
    9.9380    1.8610    0.0000 Cl  0  0  0  0  0  0  0  0  0  0  0  0
    2.6430   -0.1370    0.0000 O   0  0  0  0  0  0  0  0  0  0  0  0
    6.1070   -2.1370    0.0000 O   0  0  0  0  0  0  0  0  0  0  0  0
    9.4220    3.8160    0.0000 O   0  0  0  0  0  0  0  0  0  0  0  0
    3.6280   -0.9630    0.0000 O   0  0  0  0  0  0  0  0  0  0  0  0
    7.0920   -3.9640    0.0000 O   0  0  0  0  0  0  0  0  0  0  0  0
    6.2260   -1.4630    0.0000 O   0  0  0  0  0  0  0  0  0  0  0  0
    5.7650   -4.0770    0.0000 O   0  0  0  0  0  0  0  0  0  0  0  0
    7.0920    0.0370    0.0000 O   0  0  0  0  0  0  0  0  0  0  0  0
    7.5400    0.7100    0.0000 O   0  0  0  0  0  0  0  0  0  0  0  0
    8.5060    0.4510    0.0000 N   0  0  0  0  0  0  0  0  0  0  0  0
    5.3600    0.0370    0.0000 N   0  0  0  0  0  0  0  0  0  0  0  0
    5.1220   -3.8420    0.0000 C   0  0  0  0  0  0  0  0  0  0  0  0
    2.0000    0.6290    0.0000 C   0  0  0  0  0  0  0  0  0  0  0  0
    9.1630    4.7820    0.0000 C   0  0  0  0  0  0  0  0  0  0  0  0
    9.4720    0.1920    0.0000 C   0  0  0  0  0  0  0  0  0  0  0  0
    5.4640   -4.7820    0.0000 C   0  0  0  0  0  0  0  0  0  0  0  0
    4.1820   -4.1840    0.0000 C   0  0  0  0  0  0  0  0  0  0  0  0
    7.9580   -2.4630    0.0000 C   0  0  1  0  0  0  0  0  0  0  0  0
    4.3630   -2.8760    0.0000 C   0  0  1  0  0  0  0  0  0  0  0  0
    6.6640    1.4350    0.0000 C   0  0  0  0  0  0  0  0  0  0  0  0
    4.4940   -0.4630    0.0000 C   0  0  1  0  0  0  0  0  0  0  0  0
    7.0920   -2.9630    0.0000 C   0  0  1  0  0  0  0  0  0  0  0  0
    7.0920   -1.9630    0.0000 C   0  0  2  0  0  0  0  0  0  0  0  0
    6.2260   -3.4630    0.0000 C   0  0  1  0  0  0  0  0  0  0  0  0
    5.3600   -1.9630    0.0000 C   0  0  1  0  0  0  0  0  0  0  0  0
    5.3600   -2.9630    0.0000 C   0  0  2  0  0  0  0  0  0  0  0  0
    3.6280    0.0370    0.0000 C   0  0  2  0  0  0  0  0  0  0  0  0
    4.4940   -1.4630    0.0000 C   0  0  0  0  0  0  0  0  0  0  0  0
    7.7990   -1.2560    0.0000 C   0  0  0  0  0  0  0  0  0  0  0  0
    6.0560    2.9010    0.0000 C   0  0  0  0  0  0  0  0  0  0  0  0
    5.7650   -3.0770    0.0000 C   0  0  0  0  0  0  0  0  0  0  0  0
    6.2260   -0.4630    0.0000 C   0  0  0  0  0  0  0  0  0  0  0  0
    7.7990   -0.2560    0.0000 C   0  0  0  0  0  0  0  0  0  0  0  0
    5.7980    1.9350    0.0000 C   0  0  0  0  0  0  0  0  0  0  0  0
    3.2590    0.9860    0.0000 C   0  0  0  0  0  0  0  0  0  0  0  0
    4.9320    1.4350    0.0000 C   0  0  0  0  0  0  0  0  0  0  0  0
    3.9660    1.6930    0.0000 C   0  0  0  0  0  0  0  0  0  0  0  0
    8.9740    2.1270    0.0000 C   0  0  0  0  0  0  0  0  0  0  0  0
    8.7150    3.1090    0.0000 C   0  0  0  0  0  0  0  0  0  0  0  0
    8.2470    1.4170    0.0000 C   0  0  0  0  0  0  0  0  0  0  0  0
    7.0220    2.6420    0.0000 C   0  0  0  0  0  0  0  0  0  0  0  0
    7.7320    3.3680    0.0000 C   0  0  0  0  0  0  0  0  0  0  0  0
    7.2810    1.6760    0.0000 C   0  0  0  0  0  0  0  0  0  0  0  0
    3.6280   -1.5830    0.0000 H   0  0  0  0  0  0  0  0  0  0  0  0
    5.6700    0.5740    0.0000 H   0  0  0  0  0  0  0  0  0  0  0  0
    4.7660   -3.3350    0.0000 H   0  0  0  0  0  0  0  0  0  0  0  0
    2.4750    1.0280    0.0000 H   0  0  0  0  0  0  0  0  0  0  0  0
    1.5250    0.2310    0.0000 H   0  0  0  0  0  0  0  0  0  0  0  0
    1.6020    1.1040    0.0000 H   0  0  0  0  0  0  0  0  0  0  0  0
    8.5640    4.6220    0.0000 H   0  0  0  0  0  0  0  0  0  0  0  0
    9.0020    5.3810    0.0000 H   0  0  0  0  0  0  0  0  0  0  0  0
    9.7620    4.9430    0.0000 H   0  0  0  0  0  0  0  0  0  0  0  0
    9.6320    0.7910    0.0000 H   0  0  0  0  0  0  0  0  0  0  0  0
   10.0710    0.0320    0.0000 H   0  0  0  0  0  0  0  0  0  0  0  0
    9.3110   -0.4070    0.0000 H   0  0  0  0  0  0  0  0  0  0  0  0
    6.0470   -4.5700    0.0000 H   0  0  0  0  0  0  0  0  0  0  0  0
    5.6760   -5.3650    0.0000 H   0  0  0  0  0  0  0  0  0  0  0  0
    4.8810   -4.9940    0.0000 H   0  0  0  0  0  0  0  0  0  0  0  0
    4.3940   -4.7670    0.0000 H   0  0  0  0  0  0  0  0  0  0  0  0
    3.6000   -4.3960    0.0000 H   0  0  0  0  0  0  0  0  0  0  0  0
    3.9700   -3.6020    0.0000 H   0  0  0  0  0  0  0  0  0  0  0  0
    8.2680   -3.0000    0.0000 H   0  0  0  0  0  0  0  0  0  0  0  0
    8.4950   -2.1530    0.0000 H   0  0  0  0  0  0  0  0  0  0  0  0
    7.6480   -1.9260    0.0000 H   0  0  0  0  0  0  0  0  0  0  0  0
    4.4180   -2.2580    0.0000 H   0  0  0  0  0  0  0  0  0  0  0  0
    3.7460   -2.8220    0.0000 H   0  0  0  0  0  0  0  0  0  0  0  0
    4.3090   -3.4940    0.0000 H   0  0  0  0  0  0  0  0  0  0  0  0
    6.3540    0.8980    0.0000 H   0  0  0  0  0  0  0  0  0  0  0  0
    6.9740    1.9720    0.0000 H   0  0  0  0  0  0  0  0  0  0  0  0
    7.2010    1.1250    0.0000 H   0  0  0  0  0  0  0  0  0  0  0  0
    7.0920   -1.3430    0.0000 H   0  0  0  0  0  0  0  0  0  0  0  0
    6.4990   -4.2150    0.0000 H   0  0  0  0  0  0  0  0  0  0  0  0
    4.6670   -2.3630    0.0000 H   0  0  0  0  0  0  0  0  0  0  0  0
    4.8520   -3.3190    0.0000 H   0  0  0  0  0  0  0  0  0  0  0  0
    3.2290   -0.4380    0.0000 H   0  0  0  0  0  0  0  0  0  0  0  0
    3.8830   -1.3560    0.0000 H   0  0  0  0  0  0  0  0  0  0  0  0
    4.2820   -2.0460    0.0000 H   0  0  0  0  0  0  0  0  0  0  0  0
    8.1090   -1.7930    0.0000 H   0  0  0  0  0  0  0  0  0  0  0  0
    8.3980   -1.0960    0.0000 H   0  0  0  0  0  0  0  0  0  0  0  0
    6.2170    3.4990    0.0000 H   0  0  0  0  0  0  0  0  0  0  0  0
    5.4580    3.0610    0.0000 H   0  0  0  0  0  0  0  0  0  0  0  0
    2.6600    1.1470    0.0000 H   0  0  0  0  0  0  0  0  0  0  0  0
    5.0920    0.8360    0.0000 H   0  0  0  0  0  0  0  0  0  0  0  0
    3.8050    2.2920    0.0000 H   0  0  0  0  0  0  0  0  0  0  0  0
    7.5670    3.9660    0.0000 H   0  0  0  0  0  0  0  0  0  0  0  0
    6.8430    1.2370    0.0000 H   0  0  0  0  0  0  0  0  0  0  0  0
  1 39  1  0  0  0  0
 28  2  1  1  0  0  0
  2 14  1  0  0  0  0
 24  3  1  1  0  0  0
  3 32  1  0  0  0  0
  4 40  1  0  0  0  0
  4 15  1  0  0  0  0
 22  5  1  6  0  0  0
  5 45  1  0  0  0  0
 25  6  1  6  0  0  0
 23  6  1  6  0  0  0
 26  7  1  1  0  0  0
  7 33  1  0  0  0  0
  8 32  2  0  0  0  0
  9 33  2  0  0  0  0
 10 34  2  0  0  0  0
 11 41  1  0  0  0  0
 11 16  1  0  0  0  0
 11 34  1  0  0  0  0
 12 22  1  0  0  0  0
 12 46  1  0  0  0  0
 12 33  1  0  0  0  0
 13 32  1  0  0  0  0
 13 17  1  0  0  0  0
 13 18  1  0  0  0  0
 13 47  1  0  0  0  0
 14 48  1  0  0  0  0
 14 49  1  0  0  0  0
 14 50  1  0  0  0  0
 15 51  1  0  0  0  0
 15 52  1  0  0  0  0
 15 53  1  0  0  0  0
 16 54  1  0  0  0  0
 16 55  1  0  0  0  0
 16 56  1  0  0  0  0
 17 57  1  0  0  0  0
 17 58  1  0  0  0  0
 17 59  1  0  0  0  0
 18 60  1  0  0  0  0
 18 61  1  0  0  0  0
 18 62  1  0  0  0  0
 23 19  1  1  0  0  0
 19 65  1  0  0  0  0
 19 63  1  0  0  0  0
 19 64  1  0  0  0  0
 27 20  1  1  0  0  0
 20 68  1  0  0  0  0
 20 66  1  0  0  0  0
 20 67  1  0  0  0  0
 21 35  1  0  0  0  0
 21 71  1  0  0  0  0
 21 69  1  0  0  0  0
 21 70  1  0  0  0  0
 22 28  1  0  0  0  0
 22 29  1  1  0  0  0
 23 25  1  0  0  0  0
 23 24  1  0  0  0  0
 24 72  1  6  0  0  0
 24 30  1  0  0  0  0
 25 27  1  0  0  0  0
 25 73  1  1  0  0  0
 26 29  1  0  0  0  0
 26 27  1  0  0  0  0
 26 74  1  6  0  0  0
 27 75  1  6  0  0  0
 28 36  1  0  0  0  0
 28 76  1  6  0  0  0
 29 77  1  0  0  0  0
 29 78  1  0  0  0  0
 30 80  1  0  0  0  0
 30 79  1  0  0  0  0
 30 34  1  0  0  0  0
 31 42  1  0  0  0  0
 31 35  1  0  0  0  0
 31 82  1  0  0  0  0
 31 81  1  0  0  0  0
 35 37  2  0  0  0  0
 36 38  2  0  0  0  0
 36 83  1  0  0  0  0
 37 84  1  0  0  0  0
 37 38  1  0  0  0  0
 38 85  1  0  0  0  0
 39 41  1  0  0  0  0
 39 40  2  0  0  0  0
 40 43  1  0  0  0  0
 41 44  2  0  0  0  0
 42 44  1  0  0  0  0
 42 43  2  0  0  0  0
 43 86  1  0  0  0  0
 44 87  1  0  0  0  0
M  END
$$$$
5771676
  MOE2005           2D

 25 25  0  0  1  0  0  0  0  0999 V2000
    4.5600    0.5630    0.0000 Cu  0  6  0  0  0  0  0  0  0  0  0  0
    3.7230   -1.8860    0.0000 S   0  0  0  0  0  0  0  0  0  0  0  0
    3.8170   -0.1070    0.0000 S   0  0  0  0  0  0  0  0  0  0  0  0
    3.6090    0.8720    0.0000 N   0  0  0  0  0  0  0  0  0  0  0  0
    5.2180   -0.9160    0.0000 N   0  5  0  0  0  0  0  0  0  0  0  0
    4.5600   -0.4370    0.0000 N   0  0  0  0  0  0  0  0  0  0  0  0
    3.7230   -2.8860    0.0000 C   0  0  0  0  0  0  0  0  0  0  0  0
    5.8970   -1.4460    0.0000 C   0  0  0  0  0  0  0  0  0  0  0  0
    4.2230   -1.0200    0.0000 C   0  0  3  0  0  0  0  0  0  0  0  0
    3.0210    0.0630    0.0000 C   0  0  0  0  0  0  0  0  0  0  0  0
    4.8970   -1.4230    0.0000 C   0  0  0  0  0  0  0  0  0  0  0  0
    3.6090   -0.7470    0.0000 C   0  0  0  0  0  0  0  0  0  0  0  0
    4.2150   -2.3750    0.0000 C   0  0  0  0  0  0  0  0  0  0  0  0
    2.9000   -1.5100    0.0000 C   0  0  0  0  0  0  0  0  0  0  0  0
    3.2050   -2.3310    0.0000 C   0  0  0  0  0  0  0  0  0  0  0  0
    4.3430   -2.8860    0.0000 H   0  0  0  0  0  0  0  0  0  0  0  0
    3.7230   -3.5060    0.0000 H   0  0  0  0  0  0  0  0  0  0  0  0
    3.1030   -2.8860    0.0000 H   0  0  0  0  0  0  0  0  0  0  0  0
    5.9110   -0.8270    0.0000 H   0  0  0  0  0  0  0  0  0  0  0  0
    6.5160   -1.4610    0.0000 H   0  0  0  0  0  0  0  0  0  0  0  0
    5.8820   -2.0660    0.0000 H   0  0  0  0  0  0  0  0  0  0  0  0
    2.4010    0.0630    0.0000 H   0  0  0  0  0  0  0  0  0  0  0  0
    4.4860   -2.9320    0.0000 H   0  0  0  0  0  0  0  0  0  0  0  0
    2.2920   -1.3890    0.0000 H   0  0  0  0  0  0  0  0  0  0  0  0
    2.8400   -2.8320    0.0000 H   0  0  0  0  0  0  0  0  0  0  0  0
  1  3  2  0  0  0  0
  2  9  1  0  0  0  0
  2  7  1  0  0  0  0
  3  9  2  0  0  0  0
  4  5  1  0  0  0  0
  4 10  2  0  0  0  0
  5  9  1  0  0  0  0
  6 12  1  0  0  0  0
  6 11  2  0  0  0  0
  7 16  1  0  0  0  0
  7 17  1  0  0  0  0
  7 18  1  0  0  0  0
  8 11  1  0  0  0  0
  8 21  1  0  0  0  0
  8 19  1  0  0  0  0
  8 20  1  0  0  0  0
 10 22  1  0  0  0  0
 10 12  1  0  0  0  0
 11 13  1  0  0  0  0
 12 14  2  0  0  0  0
 13 15  2  0  0  0  0
 13 23  1  0  0  0  0
 14 24  1  0  0  0  0
 14 15  1  0  0  0  0
 15 25  1  0  0  0  0
M  CHG  1   1  -2
M  CHG  1   5  -1
M  END
$$$$
6400961
  MOE2005           2D

 38 39  0  0  0  0  0  0  0  0999 V2000
    5.9670   -2.9900    0.0000 O   0  0  0  0  0  0  0  0  0  0  0  0
    6.2620   -1.0280    0.0000 O   0  0  0  0  0  0  0  0  0  0  0  0
    6.2780    1.8840    0.0000 N   0  0  0  0  0  0  0  0  0  0  0  0
    4.6780   -0.2230    0.0000 N   0  0  0  0  0  0  0  0  0  0  0  0
    4.9890   -2.7830    0.0000 N   0  0  0  0  0  0  0  0  0  0  0  0
    5.9670    0.9340    0.0000 C   0  0  0  0  0  0  0  0  0  0  0  0
    7.2570    2.0900    0.0000 C   0  0  0  0  0  0  0  0  0  0  0  0
    5.6100    2.6280    0.0000 C   0  0  0  0  0  0  0  0  0  0  0  0
    4.9890    0.7270    0.0000 C   0  0  0  0  0  0  0  0  0  0  0  0
    7.5670    3.0410    0.0000 C   0  0  0  0  0  0  0  0  0  0  0  0
    5.9210    3.5790    0.0000 C   0  0  0  0  0  0  0  0  0  0  0  0
    5.2620   -1.0280    0.0000 C   0  0  0  0  0  0  0  0  0  0  0  0
    4.6780   -1.8330    0.0000 C   0  0  0  0  0  0  0  0  0  0  0  0
    3.7320   -0.5280    0.0000 C   0  0  0  0  0  0  0  0  0  0  0  0
    3.7320   -1.5280    0.0000 C   0  0  0  0  0  0  0  0  0  0  0  0
    2.8660   -0.0280    0.0000 C   0  0  0  0  0  0  0  0  0  0  0  0
    2.8660   -2.0280    0.0000 C   0  0  0  0  0  0  0  0  0  0  0  0
    2.0000   -0.5280    0.0000 C   0  0  0  0  0  0  0  0  0  0  0  0
    2.0000   -1.5280    0.0000 C   0  0  0  0  0  0  0  0  0  0  0  0
    6.1600   -3.5790    0.0000 H   0  0  0  0  0  0  0  0  0  0  0  0
    6.5810    0.8460    0.0000 H   0  0  0  0  0  0  0  0  0  0  0  0
    5.9880    0.3140    0.0000 H   0  0  0  0  0  0  0  0  0  0  0  0
    5.2280    2.1400    0.0000 H   0  0  0  0  0  0  0  0  0  0  0  0
    5.0630    2.9200    0.0000 H   0  0  0  0  0  0  0  0  0  0  0  0
    7.8700    2.0030    0.0000 H   0  0  0  0  0  0  0  0  0  0  0  0
    7.2770    1.4710    0.0000 H   0  0  0  0  0  0  0  0  0  0  0  0
    4.3750    0.8150    0.0000 H   0  0  0  0  0  0  0  0  0  0  0  0
    4.9680    1.3470    0.0000 H   0  0  0  0  0  0  0  0  0  0  0  0
    8.1570    2.8480    0.0000 H   0  0  0  0  0  0  0  0  0  0  0  0
    5.3320    3.7710    0.0000 H   0  0  0  0  0  0  0  0  0  0  0  0
    6.1140    4.1680    0.0000 H   0  0  0  0  0  0  0  0  0  0  0  0
    6.5100    3.3860    0.0000 H   0  0  0  0  0  0  0  0  0  0  0  0
    6.9780    3.2330    0.0000 H   0  0  0  0  0  0  0  0  0  0  0  0
    7.7600    3.6300    0.0000 H   0  0  0  0  0  0  0  0  0  0  0  0
    2.8660    0.5920    0.0000 H   0  0  0  0  0  0  0  0  0  0  0  0
    2.8660   -2.6480    0.0000 H   0  0  0  0  0  0  0  0  0  0  0  0
    1.4630   -0.2180    0.0000 H   0  0  0  0  0  0  0  0  0  0  0  0
    1.4630   -1.8380    0.0000 H   0  0  0  0  0  0  0  0  0  0  0  0
  1  5  1  0  0  0  0
  1 20  1  0  0  0  0
  2 12  2  0  0  0  0
  3  6  1  0  0  0  0
  3  7  1  0  0  0  0
  3  8  1  0  0  0  0
  4 12  1  0  0  0  0
  4 14  1  0  0  0  0
  4  9  1  0  0  0  0
  5 13  2  0  0  0  0
  6  9  1  0  0  0  0
  6 21  1  0  0  0  0
  6 22  1  0  0  0  0
  7 10  1  0  0  0  0
  7 25  1  0  0  0  0
  7 26  1  0  0  0  0
  8 11  1  0  0  0  0
  8 23  1  0  0  0  0
  8 24  1  0  0  0  0
  9 27  1  0  0  0  0
  9 28  1  0  0  0  0
 10 29  1  0  0  0  0
 10 33  1  0  0  0  0
 10 34  1  0  0  0  0
 11 30  1  0  0  0  0
 11 31  1  0  0  0  0
 11 32  1  0  0  0  0
 12 13  1  0  0  0  0
 13 15  1  0  0  0  0
 14 16  1  0  0  0  0
 14 15  2  0  0  0  0
 15 17  1  0  0  0  0
 16 18  2  0  0  0  0
 16 35  1  0  0  0  0
 17 19  2  0  0  0  0
 17 36  1  0  0  0  0
 18 19  1  0  0  0  0
 18 37  1  0  0  0  0
 19 38  1  0  0  0  0
M  END
$$$$
658378
  MOE2005           2D

 31 33  0  0  1  0  0  0  0  0999 V2000
    3.5100    2.9840    0.0000 Br  0  0  0  0  0  0  0  0  0  0  0  0
    3.7890    1.2240    0.0000 S   0  0  0  0  0  0  0  0  0  0  0  0
    4.5980   -2.3640    0.0000 O   0  0  0  0  0  0  0  0  0  0  0  0
    2.8660   -2.3640    0.0000 N   0  0  0  0  0  0  0  0  0  0  0  0
    6.9940   -1.3640    0.0000 N   0  0  0  0  0  0  0  0  0  0  0  0
    6.4100   -2.1690    0.0000 N   0  0  0  0  0  0  0  0  0  0  0  0
    2.0000    0.1360    0.0000 N   0  0  0  0  0  0  0  0  0  0  0  0
    6.7210    0.3910    0.0000 C   0  0  0  0  0  0  0  0  0  0  0  0
    7.7000    0.5980    0.0000 C   0  0  0  0  0  0  0  0  0  0  0  0
    4.5980   -0.3640    0.0000 C   0  0  3  0  0  0  0  0  0  0  0  0
    3.7320   -1.8640    0.0000 C   0  0  0  0  0  0  0  0  0  0  0  0
    3.7320   -0.8640    0.0000 C   0  0  0  0  0  0  0  0  0  0  0  0
    4.0980    2.1750    0.0000 C   0  0  0  0  0  0  0  0  0  0  0  0
    5.4640   -1.8640    0.0000 C   0  0  0  0  0  0  0  0  0  0  0  0
    6.4100   -0.5590    0.0000 C   0  0  0  0  0  0  0  0  0  0  0  0
    4.5980    0.6360    0.0000 C   0  0  0  0  0  0  0  0  0  0  0  0
    5.4640   -0.8640    0.0000 C   0  0  0  0  0  0  0  0  0  0  0  0
    5.0980    2.1750    0.0000 C   0  0  0  0  0  0  0  0  0  0  0  0
    5.4070    1.2240    0.0000 C   0  0  0  0  0  0  0  0  0  0  0  0
    2.8660   -0.3640    0.0000 C   0  0  0  0  0  0  0  0  0  0  0  0
    2.8660   -2.9840    0.0000 H   0  0  0  0  0  0  0  0  0  0  0  0
    2.3290   -2.0540    0.0000 H   0  0  0  0  0  0  0  0  0  0  0  0
    7.6140   -1.3640    0.0000 H   0  0  0  0  0  0  0  0  0  0  0  0
    6.7000    1.0110    0.0000 H   0  0  0  0  0  0  0  0  0  0  0  0
    6.1070    0.4790    0.0000 H   0  0  0  0  0  0  0  0  0  0  0  0
    7.8270   -0.0090    0.0000 H   0  0  0  0  0  0  0  0  0  0  0  0
    8.3060    0.7250    0.0000 H   0  0  0  0  0  0  0  0  0  0  0  0
    7.5720    1.2040    0.0000 H   0  0  0  0  0  0  0  0  0  0  0  0
    4.0610   -0.0540    0.0000 H   0  0  0  0  0  0  0  0  0  0  0  0
    5.4630    2.6770    0.0000 H   0  0  0  0  0  0  0  0  0  0  0  0
    5.9970    1.0320    0.0000 H   0  0  0  0  0  0  0  0  0  0  0  0
  1 13  1  0  0  0  0
  2 13  1  0  0  0  0
  2 16  1  0  0  0  0
  3 14  1  0  0  0  0
  3 11  1  0  0  0  0
  4 11  1  0  0  0  0
  4 22  1  0  0  0  0
  4 21  1  0  0  0  0
  5  6  1  0  0  0  0
  5 23  1  0  0  0  0
  5 15  1  0  0  0  0
  6 14  2  0  0  0  0
  7 20  3  0  0  0  0
  8 15  1  0  0  0  0
  8  9  1  0  0  0  0
  8 25  1  0  0  0  0
  8 24  1  0  0  0  0
  9 26  1  0  0  0  0
  9 27  1  0  0  0  0
  9 28  1  0  0  0  0
 10 16  1  0  0  0  0
 10 17  1  0  0  0  0
 10 12  1  0  0  0  0
 10 29  1  0  0  0  0
 11 12  2  0  0  0  0
 12 20  1  0  0  0  0
 13 18  2  0  0  0  0
 14 17  1  0  0  0  0
 15 17  2  0  0  0  0
 16 19  2  0  0  0  0
 18 30  1  0  0  0  0
 18 19  1  0  0  0  0
 19 31  1  0  0  0  0
M  END
$$$$
659280
  MOE2005           2D

 44 45  0  0  1  0  0  0  0  0999 V2000
    4.5980   -0.2500    0.0000 S   0  0  0  0  0  0  0  0  0  0  0  0
    8.0620   -0.2500    0.0000 O   0  0  0  0  0  0  0  0  0  0  0  0
    6.3300   -0.2500    0.0000 N   0  0  0  0  0  0  0  0  0  0  0  0
    3.7320    2.2500    0.0000 N   0  0  0  0  0  0  0  0  0  0  0  0
    4.5980   -1.2500    0.0000 C   0  0  0  0  0  0  0  0  0  0  0  0
    3.7320   -1.7500    0.0000 C   0  0  0  0  0  0  0  0  0  0  0  0
    3.7320   -2.7500    0.0000 C   0  0  0  0  0  0  0  0  0  0  0  0
    2.8660   -3.2500    0.0000 C   0  0  0  0  0  0  0  0  0  0  0  0
    2.8660   -4.2500    0.0000 C   0  0  0  0  0  0  0  0  0  0  0  0
    2.0000   -4.7500    0.0000 C   0  0  0  0  0  0  0  0  0  0  0  0
    6.3300    1.7500    0.0000 C   0  0  3  0  0  0  0  0  0  0  0  0
    7.1960    1.2500    0.0000 C   0  0  0  0  0  0  0  0  0  0  0  0
    7.1960    0.2500    0.0000 C   0  0  0  0  0  0  0  0  0  0  0  0
    5.4640    0.2500    0.0000 C   0  0  0  0  0  0  0  0  0  0  0  0
    5.4640    1.2500    0.0000 C   0  0  0  0  0  0  0  0  0  0  0  0
    6.3300    2.7500    0.0000 C   0  0  0  0  0  0  0  0  0  0  0  0
    7.1960    3.2500    0.0000 C   0  0  0  0  0  0  0  0  0  0  0  0
    5.4640    3.2500    0.0000 C   0  0  0  0  0  0  0  0  0  0  0  0
    7.1960    4.2500    0.0000 C   0  0  0  0  0  0  0  0  0  0  0  0
    5.4640    4.2500    0.0000 C   0  0  0  0  0  0  0  0  0  0  0  0
    6.3300    4.7500    0.0000 C   0  0  0  0  0  0  0  0  0  0  0  0
    4.5980    1.7500    0.0000 C   0  0  0  0  0  0  0  0  0  0  0  0
    6.3300   -0.8700    0.0000 H   0  0  0  0  0  0  0  0  0  0  0  0
    5.2090   -1.1420    0.0000 H   0  0  0  0  0  0  0  0  0  0  0  0
    4.8100   -1.8330    0.0000 H   0  0  0  0  0  0  0  0  0  0  0  0
    3.1220   -1.8580    0.0000 H   0  0  0  0  0  0  0  0  0  0  0  0
    3.5200   -1.1670    0.0000 H   0  0  0  0  0  0  0  0  0  0  0  0
    4.3430   -2.6420    0.0000 H   0  0  0  0  0  0  0  0  0  0  0  0
    3.9440   -3.3330    0.0000 H   0  0  0  0  0  0  0  0  0  0  0  0
    2.2550   -3.3580    0.0000 H   0  0  0  0  0  0  0  0  0  0  0  0
    2.6540   -2.6670    0.0000 H   0  0  0  0  0  0  0  0  0  0  0  0
    3.0780   -4.8330    0.0000 H   0  0  0  0  0  0  0  0  0  0  0  0
    3.4770   -4.1420    0.0000 H   0  0  0  0  0  0  0  0  0  0  0  0
    1.6900   -4.2130    0.0000 H   0  0  0  0  0  0  0  0  0  0  0  0
    2.3100   -5.2870    0.0000 H   0  0  0  0  0  0  0  0  0  0  0  0
    1.4630   -5.0600    0.0000 H   0  0  0  0  0  0  0  0  0  0  0  0
    6.8670    2.0600    0.0000 H   0  0  0  0  0  0  0  0  0  0  0  0
    7.4080    1.8330    0.0000 H   0  0  0  0  0  0  0  0  0  0  0  0
    7.8070    1.1420    0.0000 H   0  0  0  0  0  0  0  0  0  0  0  0
    7.7330    2.9400    0.0000 H   0  0  0  0  0  0  0  0  0  0  0  0
    4.9270    2.9400    0.0000 H   0  0  0  0  0  0  0  0  0  0  0  0
    7.7330    4.5600    0.0000 H   0  0  0  0  0  0  0  0  0  0  0  0
    4.9270    4.5600    0.0000 H   0  0  0  0  0  0  0  0  0  0  0  0
    6.3300    5.3700    0.0000 H   0  0  0  0  0  0  0  0  0  0  0  0
  1 14  1  0  0  0  0
  1  5  1  0  0  0  0
  2 13  2  0  0  0  0
  3 14  1  0  0  0  0
  3 13  1  0  0  0  0
  3 23  1  0  0  0  0
  4 22  3  0  0  0  0
  5 25  1  0  0  0  0
  5 24  1  0  0  0  0
  5  6  1  0  0  0  0
  6 27  1  0  0  0  0
  6 26  1  0  0  0  0
  6  7  1  0  0  0  0
  7 29  1  0  0  0  0
  7 28  1  0  0  0  0
  7  8  1  0  0  0  0
  8 31  1  0  0  0  0
  8 30  1  0  0  0  0
  8  9  1  0  0  0  0
  9 33  1  0  0  0  0
  9 32  1  0  0  0  0
  9 10  1  0  0  0  0
 10 34  1  0  0  0  0
 10 35  1  0  0  0  0
 10 36  1  0  0  0  0
 11 12  1  0  0  0  0
 11 16  1  0  0  0  0
 11 37  1  0  0  0  0
 11 15  1  0  0  0  0
 12 13  1  0  0  0  0
 12 39  1  0  0  0  0
 12 38  1  0  0  0  0
 14 15  2  0  0  0  0
 15 22  1  0  0  0  0
 16 17  2  0  0  0  0
 16 18  1  0  0  0  0
 17 40  1  0  0  0  0
 17 19  1  0  0  0  0
 18 41  1  0  0  0  0
 18 20  2  0  0  0  0
 19 42  1  0  0  0  0
 19 21  2  0  0  0  0
 20 21  1  0  0  0  0
 20 43  1  0  0  0  0
 21 44  1  0  0  0  0
M  END
$$$$
659397
  MOE2005           2D

 49 51  0  0  1  0  0  0  0  0999 V2000
    5.0130   -1.3390    0.0000 O   0  0  0  0  0  0  0  0  0  0  0  0
    3.2810   -1.3390    0.0000 N   0  0  0  0  0  0  0  0  0  0  0  0
    4.1470    2.1610    0.0000 N   0  0  0  0  0  0  0  0  0  0  0  0
    5.8790    2.1610    0.0000 N   0  0  0  0  0  0  0  0  0  0  0  0
    5.8790    0.1610    0.0000 N   0  0  0  0  0  0  0  0  0  0  0  0
    2.4150    1.1610    0.0000 N   0  0  0  0  0  0  0  0  0  0  0  0
    4.1470    0.1610    0.0000 C   0  0  3  0  0  0  0  0  0  0  0  0
    3.2810   -2.3390    0.0000 C   0  0  0  0  0  0  0  0  0  0  0  0
    4.2220    3.1590    0.0000 C   0  0  0  0  0  0  0  0  0  0  0  0
    3.3210    1.5980    0.0000 C   0  0  0  0  0  0  0  0  0  0  0  0
    3.4890    3.8390    0.0000 C   0  0  0  0  0  0  0  0  0  0  0  0
    2.3650    1.8930    0.0000 C   0  0  0  0  0  0  0  0  0  0  0  0
    2.5000    3.6900    0.0000 C   0  0  0  0  0  0  0  0  0  0  0  0
    2.0000    2.8240    0.0000 C   0  0  0  0  0  0  0  0  0  0  0  0
    4.1470   -0.8390    0.0000 C   0  0  0  0  0  0  0  0  0  0  0  0
    2.4150   -2.8390    0.0000 C   0  0  0  0  0  0  0  0  0  0  0  0
    2.4150   -3.8390    0.0000 C   0  0  0  0  0  0  0  0  0  0  0  0
    5.0130    1.6610    0.0000 C   0  0  0  0  0  0  0  0  0  0  0  0
    5.0130    0.6610    0.0000 C   0  0  0  0  0  0  0  0  0  0  0  0
    6.7450    1.6610    0.0000 C   0  0  0  0  0  0  0  0  0  0  0  0
    6.7450    0.6610    0.0000 C   0  0  0  0  0  0  0  0  0  0  0  0
    7.6390    2.1960    0.0000 C   0  0  0  0  0  0  0  0  0  0  0  0
    7.6390    0.1270    0.0000 C   0  0  0  0  0  0  0  0  0  0  0  0
    8.5450    1.6820    0.0000 C   0  0  0  0  0  0  0  0  0  0  0  0
    8.5450    0.6410    0.0000 C   0  0  0  0  0  0  0  0  0  0  0  0
    3.2810    0.6610    0.0000 C   0  0  0  0  0  0  0  0  0  0  0  0
    2.7440   -1.0290    0.0000 H   0  0  0  0  0  0  0  0  0  0  0  0
    3.6100   -0.1490    0.0000 H   0  0  0  0  0  0  0  0  0  0  0  0
    3.8920   -2.2310    0.0000 H   0  0  0  0  0  0  0  0  0  0  0  0
    3.4930   -2.9210    0.0000 H   0  0  0  0  0  0  0  0  0  0  0  0
    3.7750    1.1760    0.0000 H   0  0  0  0  0  0  0  0  0  0  0  0
    3.0110    1.0610    0.0000 H   0  0  0  0  0  0  0  0  0  0  0  0
    4.5320    3.6960    0.0000 H   0  0  0  0  0  0  0  0  0  0  0  0
    4.8140    2.9760    0.0000 H   0  0  0  0  0  0  0  0  0  0  0  0
    2.3190    1.2750    0.0000 H   0  0  0  0  0  0  0  0  0  0  0  0
    1.7520    1.8000    0.0000 H   0  0  0  0  0  0  0  0  0  0  0  0
    4.0010    4.1880    0.0000 H   0  0  0  0  0  0  0  0  0  0  0  0
    3.2620    4.4160    0.0000 H   0  0  0  0  0  0  0  0  0  0  0  0
    1.4880    2.4740    0.0000 H   0  0  0  0  0  0  0  0  0  0  0  0
    1.5460    3.2450    0.0000 H   0  0  0  0  0  0  0  0  0  0  0  0
    1.9080    3.8720    0.0000 H   0  0  0  0  0  0  0  0  0  0  0  0
    2.5460    4.3080    0.0000 H   0  0  0  0  0  0  0  0  0  0  0  0
    1.8780   -2.5290    0.0000 H   0  0  0  0  0  0  0  0  0  0  0  0
    1.8780   -4.1490    0.0000 H   0  0  0  0  0  0  0  0  0  0  0  0
    2.9520   -4.1490    0.0000 H   0  0  0  0  0  0  0  0  0  0  0  0
    7.6320    2.8160    0.0000 H   0  0  0  0  0  0  0  0  0  0  0  0
    7.6320   -0.4930    0.0000 H   0  0  0  0  0  0  0  0  0  0  0  0
    9.0810    1.9940    0.0000 H   0  0  0  0  0  0  0  0  0  0  0  0
    9.0810    0.3280    0.0000 H   0  0  0  0  0  0  0  0  0  0  0  0
  1 15  2  0  0  0  0
  2 15  1  0  0  0  0
  2  8  1  0  0  0  0
  2 27  1  0  0  0  0
  3 18  1  0  0  0  0
  3  9  1  0  0  0  0
  3 10  1  0  0  0  0
  4 18  2  0  0  0  0
  4 20  1  0  0  0  0
  5 19  2  0  0  0  0
  5 21  1  0  0  0  0
  6 26  3  0  0  0  0
  7 15  1  0  0  0  0
  7 26  1  0  0  0  0
  7 19  1  0  0  0  0
  7 28  1  0  0  0  0
  8 30  1  0  0  0  0
  8 29  1  0  0  0  0
  8 16  1  0  0  0  0
  9 34  1  0  0  0  0
  9 33  1  0  0  0  0
  9 11  1  0  0  0  0
 10 32  1  0  0  0  0
 10 31  1  0  0  0  0
 10 12  1  0  0  0  0
 11 38  1  0  0  0  0
 11 37  1  0  0  0  0
 11 13  1  0  0  0  0
 12 14  1  0  0  0  0
 12 36  1  0  0  0  0
 12 35  1  0  0  0  0
 13 42  1  0  0  0  0
 13 41  1  0  0  0  0
 13 14  1  0  0  0  0
 14 39  1  0  0  0  0
 14 40  1  0  0  0  0
 16 43  1  0  0  0  0
 16 17  2  0  0  0  0
 17 44  1  0  0  0  0
 17 45  1  0  0  0  0
 18 19  1  0  0  0  0
 20 22  1  0  0  0  0
 20 21  2  0  0  0  0
 21 23  1  0  0  0  0
 22 46  1  0  0  0  0
 22 24  2  0  0  0  0
 23 25  2  0  0  0  0
 23 47  1  0  0  0  0
 24 48  1  0  0  0  0
 24 25  1  0  0  0  0
 25 49  1  0  0  0  0
M  END
$$$$
6603320
  MOE2005           2D

 75 79  0  0  1  0  0  0  0  0999 V2000
    1.4090    4.6760    0.0000 O   0  0  0  0  0  0  0  0  0  0  0  0
    9.3060    6.2130    0.0000 O   0  0  0  0  0  0  0  0  0  0  0  0
    1.3940    6.6760    0.0000 O   0  0  0  0  0  0  0  0  0  0  0  0
   11.0800    5.1890    0.0000 O   0  0  0  0  0  0  0  0  0  0  0  0
    7.5620    2.1440    0.0000 N   0  0  0  0  0  0  0  0  0  0  0  0
    5.8030    5.1890    0.0000 N   0  0  0  0  0  0  0  0  0  0  0  0
    4.8980    1.6200    0.0000 C   0  0  1  0  0  0  0  0  0  0  0  0
    4.8980    3.6680    0.0000 C   0  0  1  0  0  0  0  0  0  0  0  0
    0.5390    5.1690    0.0000 C   0  0  0  0  0  0  0  0  0  0  0  0
   10.1700    6.7170    0.0000 C   0  0  0  0  0  0  0  0  0  0  0  0
    1.3860    7.6760    0.0000 C   0  0  0  0  0  0  0  0  0  0  0  0
   11.9440    4.6860    0.0000 C   0  0  0  0  0  0  0  0  0  0  0  0
    4.9010    0.6200    0.0000 C   0  0  0  0  0  0  0  0  0  0  0  0
    5.7620    2.1230    0.0000 C   0  0  2  0  0  0  0  0  0  0  0  0
    5.7620    3.1650    0.0000 C   0  0  2  0  0  0  0  0  0  0  0  0
    4.9010    4.6680    0.0000 C   0  0  2  0  0  0  0  0  0  0  0  0
    7.5620    3.1440    0.0000 C   0  0  1  0  0  0  0  0  0  0  0  0
    6.6680    1.6100    0.0000 C   0  0  0  0  0  0  0  0  0  0  0  0
    8.4280    1.6440    0.0000 C   0  0  0  0  0  0  0  0  0  0  0  0
    5.7950    6.2310    0.0000 C   0  0  0  0  0  0  0  0  0  0  0  0
    6.6680    3.6790    0.0000 C   0  0  0  0  0  0  0  0  0  0  0  0
    4.8850    6.7380    0.0000 C   0  0  0  0  0  0  0  0  0  0  0  0
    9.2940    2.1440    0.0000 C   0  0  0  0  0  0  0  0  0  0  0  0
    2.2710    5.1830    0.0000 C   0  0  0  0  0  0  0  0  0  0  0  0
    9.3100    5.2130    0.0000 C   0  0  0  0  0  0  0  0  0  0  0  0
    2.2640    6.1830    0.0000 C   0  0  0  0  0  0  0  0  0  0  0  0
   10.2120    4.6930    0.0000 C   0  0  0  0  0  0  0  0  0  0  0  0
    4.0030    5.1960    0.0000 C   0  0  0  0  0  0  0  0  0  0  0  0
    8.4280    3.6440    0.0000 C   0  0  0  0  0  0  0  0  0  0  0  0
    3.9960    6.1960    0.0000 C   0  0  0  0  0  0  0  0  0  0  0  0
    9.2940    3.1440    0.0000 C   0  0  0  0  0  0  0  0  0  0  0  0
    3.1410    4.6890    0.0000 C   0  0  0  0  0  0  0  0  0  0  0  0
    8.4120    4.6860    0.0000 C   0  0  0  0  0  0  0  0  0  0  0  0
    3.1260    6.6890    0.0000 C   0  0  0  0  0  0  0  0  0  0  0  0
   10.2040    3.6510    0.0000 C   0  0  0  0  0  0  0  0  0  0  0  0
    6.3420    4.8810    0.0000 H   0  0  0  0  0  0  0  0  0  0  0  0
    4.6830    2.2020    0.0000 H   0  0  0  0  0  0  0  0  0  0  0  0
    4.2870    1.5100    0.0000 H   0  0  0  0  0  0  0  0  0  0  0  0
    4.2870    3.7780    0.0000 H   0  0  0  0  0  0  0  0  0  0  0  0
    4.6830    3.0870    0.0000 H   0  0  0  0  0  0  0  0  0  0  0  0
    0.2340    4.6300    0.0000 H   0  0  0  0  0  0  0  0  0  0  0  0
    0.0000    5.4750    0.0000 H   0  0  0  0  0  0  0  0  0  0  0  0
    0.8450    5.7090    0.0000 H   0  0  0  0  0  0  0  0  0  0  0  0
   10.4820    6.1810    0.0000 H   0  0  0  0  0  0  0  0  0  0  0  0
   10.7060    7.0290    0.0000 H   0  0  0  0  0  0  0  0  0  0  0  0
    9.8580    7.2530    0.0000 H   0  0  0  0  0  0  0  0  0  0  0  0
    0.7660    7.6710    0.0000 H   0  0  0  0  0  0  0  0  0  0  0  0
    1.3810    8.2960    0.0000 H   0  0  0  0  0  0  0  0  0  0  0  0
    2.0060    7.6810    0.0000 H   0  0  0  0  0  0  0  0  0  0  0  0
   12.2560    5.2220    0.0000 H   0  0  0  0  0  0  0  0  0  0  0  0
   12.4790    4.3740    0.0000 H   0  0  0  0  0  0  0  0  0  0  0  0
   11.6320    4.1500    0.0000 H   0  0  0  0  0  0  0  0  0  0  0  0
    4.2810    0.6180    0.0000 H   0  0  0  0  0  0  0  0  0  0  0  0
    4.9040    0.0000    0.0000 H   0  0  0  0  0  0  0  0  0  0  0  0
    5.5210    0.6220    0.0000 H   0  0  0  0  0  0  0  0  0  0  0  0
    5.2240    2.4320    0.0000 H   0  0  0  0  0  0  0  0  0  0  0  0
    5.7650    3.7850    0.0000 H   0  0  0  0  0  0  0  0  0  0  0  0
    5.4380    4.3570    0.0000 H   0  0  0  0  0  0  0  0  0  0  0  0
    7.5680    3.9440    0.0000 H   0  0  0  0  0  0  0  0  0  0  0  0
    7.0720    1.1400    0.0000 H   0  0  0  0  0  0  0  0  0  0  0  0
    6.2740    1.1310    0.0000 H   0  0  0  0  0  0  0  0  0  0  0  0
    8.8260    1.1690    0.0000 H   0  0  0  0  0  0  0  0  0  0  0  0
    8.0290    1.1690    0.0000 H   0  0  0  0  0  0  0  0  0  0  0  0
    6.0000    6.8160    0.0000 H   0  0  0  0  0  0  0  0  0  0  0  0
    6.4070    6.1290    0.0000 H   0  0  0  0  0  0  0  0  0  0  0  0
    7.0720    4.1490    0.0000 H   0  0  0  0  0  0  0  0  0  0  0  0
    6.2740    4.1580    0.0000 H   0  0  0  0  0  0  0  0  0  0  0  0
    4.4770    7.2040    0.0000 H   0  0  0  0  0  0  0  0  0  0  0  0
    5.2750    7.2200    0.0000 H   0  0  0  0  0  0  0  0  0  0  0  0
    9.9040    2.2520    0.0000 H   0  0  0  0  0  0  0  0  0  0  0  0
    9.5060    1.5620    0.0000 H   0  0  0  0  0  0  0  0  0  0  0  0
    3.1460    4.0690    0.0000 H   0  0  0  0  0  0  0  0  0  0  0  0
    7.8710    4.9890    0.0000 H   0  0  0  0  0  0  0  0  0  0  0  0
    3.1210    7.3090    0.0000 H   0  0  0  0  0  0  0  0  0  0  0  0
   10.7370    3.3350    0.0000 H   0  0  0  0  0  0  0  0  0  0  0  0
  1 24  1  0  0  0  0
  1  9  1  0  0  0  0
  2 25  1  0  0  0  0
  2 10  1  0  0  0  0
  3 26  1  0  0  0  0
  3 11  1  0  0  0  0
  4 27  1  0  0  0  0
  4 12  1  0  0  0  0
  5 18  1  0  0  0  0
  5 17  1  0  0  0  0
  5 19  1  0  0  0  0
  6 20  1  0  0  0  0
  6 36  1  0  0  0  0
  6 16  1  0  0  0  0
 14  7  1  6  0  0  0
  7 13  1  0  0  0  0
  7 38  1  1  0  0  0
  7 37  1  6  0  0  0
  8 16  1  0  0  0  0
  8 15  1  0  0  0  0
  8 40  1  1  0  0  0
  8 39  1  6  0  0  0
  9 41  1  0  0  0  0
  9 42  1  0  0  0  0
  9 43  1  0  0  0  0
 10 44  1  0  0  0  0
 10 45  1  0  0  0  0
 10 46  1  0  0  0  0
 11 47  1  0  0  0  0
 11 48  1  0  0  0  0
 11 49  1  0  0  0  0
 12 50  1  0  0  0  0
 12 51  1  0  0  0  0
 12 52  1  0  0  0  0
 13 53  1  0  0  0  0
 13 54  1  0  0  0  0
 13 55  1  0  0  0  0
 14 15  1  0  0  0  0
 14 18  1  0  0  0  0
 14 56  1  1  0  0  0
 15 57  1  6  0  0  0
 15 21  1  0  0  0  0
 16 28  1  0  0  0  0
 16 58  1  1  0  0  0
 17 59  1  6  0  0  0
 17 29  1  1  0  0  0
 17 21  1  0  0  0  0
 18 60  1  0  0  0  0
 18 61  1  0  0  0  0
 19 63  1  0  0  0  0
 19 62  1  0  0  0  0
 19 23  1  0  0  0  0
 20 22  1  0  0  0  0
 20 65  1  0  0  0  0
 20 64  1  0  0  0  0
 21 66  1  0  0  0  0
 21 67  1  0  0  0  0
 22 30  1  0  0  0  0
 22 69  1  0  0  0  0
 22 68  1  0  0  0  0
 23 31  1  0  0  0  0
 23 71  1  0  0  0  0
 23 70  1  0  0  0  0
 24 32  2  0  0  0  0
 24 26  1  0  0  0  0
 25 33  2  0  0  0  0
 25 27  1  0  0  0  0
 26 34  2  0  0  0  0
 27 35  2  0  0  0  0
 28 32  1  0  0  0  0
 28 30  2  0  0  0  0
 29 33  1  0  0  0  0
 29 31  2  0  0  0  0
 30 34  1  0  0  0  0
 31 35  1  0  0  0  0
 32 72  1  0  0  0  0
 33 73  1  0  0  0  0
 34 74  1  0  0  0  0
 35 75  1  0  0  0  0
M  END
$$$$
661033
  MOE2005           2D

 49 52  0  0  1  0  0  0  0  0999 V2000
    2.6360    0.1110    0.0000 S   0  0  0  0  0  0  0  0  0  0  0  0
    4.5220   -4.0020    0.0000 O   0  0  0  0  0  0  0  0  0  0  0  0
    2.0000    2.6910    0.0000 O   0  0  0  0  0  0  0  0  0  0  0  0
    5.6540   -0.7290    0.0000 O   0  0  0  0  0  0  0  0  0  0  0  0
    3.6010    2.1400    0.0000 N   0  0  0  0  0  0  0  0  0  0  0  0
    5.3310    1.8300    0.0000 N   0  0  0  0  0  0  0  0  0  0  0  0
    5.9180    1.0280    0.0000 N   0  0  0  0  0  0  0  0  0  0  0  0
    3.7920   -4.6860    0.0000 C   0  0  0  0  0  0  0  0  0  0  0  0
    5.6370    2.7820    0.0000 C   0  0  0  0  0  0  0  0  0  0  0  0
    3.6120   -0.1070    0.0000 C   0  0  3  0  0  0  0  0  0  0  0  0
    4.9650    3.5230    0.0000 C   0  0  0  0  0  0  0  0  0  0  0  0
    6.6140    2.9930    0.0000 C   0  0  0  0  0  0  0  0  0  0  0  0
    5.2710    4.4750    0.0000 C   0  0  0  0  0  0  0  0  0  0  0  0
    6.9200    3.9450    0.0000 C   0  0  0  0  0  0  0  0  0  0  0  0
    6.2490    4.6860    0.0000 C   0  0  0  0  0  0  0  0  0  0  0  0
    2.1980    1.0100    0.0000 C   0  0  0  0  0  0  0  0  0  0  0  0
    2.6270    1.9130    0.0000 C   0  0  0  0  0  0  0  0  0  0  0  0
    5.3390    0.2200    0.0000 C   0  0  0  0  0  0  0  0  0  0  0  0
    4.3860    1.5200    0.0000 C   0  0  0  0  0  0  0  0  0  0  0  0
    4.2950   -3.0280    0.0000 C   0  0  0  0  0  0  0  0  0  0  0  0
    4.3910    0.5200    0.0000 C   0  0  0  0  0  0  0  0  0  0  0  0
    3.8400   -1.0810    0.0000 C   0  0  0  0  0  0  0  0  0  0  0  0
    5.0240   -2.3450    0.0000 C   0  0  0  0  0  0  0  0  0  0  0  0
    3.3380   -2.7380    0.0000 C   0  0  0  0  0  0  0  0  0  0  0  0
    4.7970   -1.3710    0.0000 C   0  0  0  0  0  0  0  0  0  0  0  0
    3.1100   -1.7650    0.0000 C   0  0  0  0  0  0  0  0  0  0  0  0
    3.7360    2.7450    0.0000 H   0  0  0  0  0  0  0  0  0  0  0  0
    6.5380    1.0310    0.0000 H   0  0  0  0  0  0  0  0  0  0  0  0
    3.3680   -4.2340    0.0000 H   0  0  0  0  0  0  0  0  0  0  0  0
    3.3400   -5.1100    0.0000 H   0  0  0  0  0  0  0  0  0  0  0  0
    4.2160   -5.1380    0.0000 H   0  0  0  0  0  0  0  0  0  0  0  0
    6.0530    2.3230    0.0000 H   0  0  0  0  0  0  0  0  0  0  0  0
    3.1760   -0.5480    0.0000 H   0  0  0  0  0  0  0  0  0  0  0  0
    7.2280    2.9090    0.0000 H   0  0  0  0  0  0  0  0  0  0  0  0
    6.6380    2.3730    0.0000 H   0  0  0  0  0  0  0  0  0  0  0  0
    4.5850    3.0330    0.0000 H   0  0  0  0  0  0  0  0  0  0  0  0
    4.4170    3.8120    0.0000 H   0  0  0  0  0  0  0  0  0  0  0  0
    7.4690    3.6560    0.0000 H   0  0  0  0  0  0  0  0  0  0  0  0
    7.3000    4.4350    0.0000 H   0  0  0  0  0  0  0  0  0  0  0  0
    4.6570    4.5590    0.0000 H   0  0  0  0  0  0  0  0  0  0  0  0
    5.2470    5.0950    0.0000 H   0  0  0  0  0  0  0  0  0  0  0  0
    6.0140    5.2600    0.0000 H   0  0  0  0  0  0  0  0  0  0  0  0
    6.7730    5.0160    0.0000 H   0  0  0  0  0  0  0  0  0  0  0  0
    1.7110    1.3940    0.0000 H   0  0  0  0  0  0  0  0  0  0  0  0
    1.7150    0.6210    0.0000 H   0  0  0  0  0  0  0  0  0  0  0  0
    5.6180   -2.5240    0.0000 H   0  0  0  0  0  0  0  0  0  0  0  0
    2.8850   -3.1620    0.0000 H   0  0  0  0  0  0  0  0  0  0  0  0
    5.2490   -0.9470    0.0000 H   0  0  0  0  0  0  0  0  0  0  0  0
    2.5170   -1.5850    0.0000 H   0  0  0  0  0  0  0  0  0  0  0  0
  1 10  1  0  0  0  0
  1 16  1  0  0  0  0
  2 20  1  0  0  0  0
  2  8  1  0  0  0  0
  3 17  2  0  0  0  0
  4 18  2  0  0  0  0
  5 19  1  0  0  0  0
  5 17  1  0  0  0  0
  5 27  1  0  0  0  0
  6  7  1  0  0  0  0
  6  9  1  0  0  0  0
  6 19  1  0  0  0  0
  7 18  1  0  0  0  0
  7 28  1  0  0  0  0
  8 29  1  0  0  0  0
  8 30  1  0  0  0  0
  8 31  1  0  0  0  0
  9 12  1  0  0  0  0
  9 32  1  0  0  0  0
  9 11  1  0  0  0  0
 10 22  1  0  0  0  0
 10 33  1  0  0  0  0
 10 21  1  0  0  0  0
 11 37  1  0  0  0  0
 11 36  1  0  0  0  0
 11 13  1  0  0  0  0
 12 35  1  0  0  0  0
 12 34  1  0  0  0  0
 12 14  1  0  0  0  0
 13 15  1  0  0  0  0
 13 41  1  0  0  0  0
 13 40  1  0  0  0  0
 14 39  1  0  0  0  0
 14 38  1  0  0  0  0
 14 15  1  0  0  0  0
 15 42  1  0  0  0  0
 15 43  1  0  0  0  0
 16 45  1  0  0  0  0
 16 44  1  0  0  0  0
 16 17  1  0  0  0  0
 18 21  1  0  0  0  0
 19 21  2  0  0  0  0
 20 23  2  0  0  0  0
 20 24  1  0  0  0  0
 22 25  2  0  0  0  0
 22 26  1  0  0  0  0
 23 25  1  0  0  0  0
 23 46  1  0  0  0  0
 24 47  1  0  0  0  0
 24 26  2  0  0  0  0
 25 48  1  0  0  0  0
 26 49  1  0  0  0  0
M  END
$$$$
663005
  MOE2005           2D

 52 55  0  0  1  0  0  0  0  0999 V2000
    2.6360   -0.0570    0.0000 S   0  0  0  0  0  0  0  0  0  0  0  0
    4.5220   -4.1690    0.0000 O   0  0  0  0  0  0  0  0  0  0  0  0
    2.0000    2.5240    0.0000 O   0  0  0  0  0  0  0  0  0  0  0  0
    5.6540   -0.8960    0.0000 O   0  0  0  0  0  0  0  0  0  0  0  0
    3.6010    1.9730    0.0000 N   0  0  0  0  0  0  0  0  0  0  0  0
    5.3310    1.6630    0.0000 N   0  0  0  0  0  0  0  0  0  0  0  0
    5.9180    0.8610    0.0000 N   0  0  0  0  0  0  0  0  0  0  0  0
    3.7920   -4.8530    0.0000 C   0  0  0  0  0  0  0  0  0  0  0  0
    5.6370    2.6150    0.0000 C   0  0  0  0  0  0  0  0  0  0  0  0
    3.6120   -0.2740    0.0000 C   0  0  3  0  0  0  0  0  0  0  0  0
    6.6270    2.7520    0.0000 C   0  0  0  0  0  0  0  0  0  0  0  0
    4.9120    3.3030    0.0000 C   0  0  0  0  0  0  0  0  0  0  0  0
    4.9980    4.3000    0.0000 C   0  0  0  0  0  0  0  0  0  0  0  0
    7.1370    3.6120    0.0000 C   0  0  0  0  0  0  0  0  0  0  0  0
    5.8310    4.8530    0.0000 C   0  0  0  0  0  0  0  0  0  0  0  0
    6.7830    4.5470    0.0000 C   0  0  0  0  0  0  0  0  0  0  0  0
    2.1980    0.8420    0.0000 C   0  0  0  0  0  0  0  0  0  0  0  0
    2.6270    1.7450    0.0000 C   0  0  0  0  0  0  0  0  0  0  0  0
    5.3390    0.0530    0.0000 C   0  0  0  0  0  0  0  0  0  0  0  0
    4.3860    1.3530    0.0000 C   0  0  0  0  0  0  0  0  0  0  0  0
    4.2950   -3.1960    0.0000 C   0  0  0  0  0  0  0  0  0  0  0  0
    4.3910    0.3530    0.0000 C   0  0  0  0  0  0  0  0  0  0  0  0
    3.8400   -1.2480    0.0000 C   0  0  0  0  0  0  0  0  0  0  0  0
    5.0240   -2.5120    0.0000 C   0  0  0  0  0  0  0  0  0  0  0  0
    3.3380   -2.9060    0.0000 C   0  0  0  0  0  0  0  0  0  0  0  0
    4.7970   -1.5380    0.0000 C   0  0  0  0  0  0  0  0  0  0  0  0
    3.1100   -1.9320    0.0000 C   0  0  0  0  0  0  0  0  0  0  0  0
    3.7360    2.5780    0.0000 H   0  0  0  0  0  0  0  0  0  0  0  0
    6.5380    0.8640    0.0000 H   0  0  0  0  0  0  0  0  0  0  0  0
    3.3680   -4.4010    0.0000 H   0  0  0  0  0  0  0  0  0  0  0  0
    3.3400   -5.2770    0.0000 H   0  0  0  0  0  0  0  0  0  0  0  0
    4.2160   -5.3060    0.0000 H   0  0  0  0  0  0  0  0  0  0  0  0
    6.0360    2.1400    0.0000 H   0  0  0  0  0  0  0  0  0  0  0  0
    3.1760   -0.7150    0.0000 H   0  0  0  0  0  0  0  0  0  0  0  0
    4.5950    2.7700    0.0000 H   0  0  0  0  0  0  0  0  0  0  0  0
    4.3210    3.4930    0.0000 H   0  0  0  0  0  0  0  0  0  0  0  0
    7.2180    2.5630    0.0000 H   0  0  0  0  0  0  0  0  0  0  0  0
    6.5740    2.1340    0.0000 H   0  0  0  0  0  0  0  0  0  0  0  0
    4.3840    4.2140    0.0000 H   0  0  0  0  0  0  0  0  0  0  0  0
    4.7780    4.8790    0.0000 H   0  0  0  0  0  0  0  0  0  0  0  0
    7.6540    3.9560    0.0000 H   0  0  0  0  0  0  0  0  0  0  0  0
    7.5870    3.1850    0.0000 H   0  0  0  0  0  0  0  0  0  0  0  0
    5.3810    5.2800    0.0000 H   0  0  0  0  0  0  0  0  0  0  0  0
    6.1470    5.3870    0.0000 H   0  0  0  0  0  0  0  0  0  0  0  0
    6.8370    5.1650    0.0000 H   0  0  0  0  0  0  0  0  0  0  0  0
    7.3970    4.6330    0.0000 H   0  0  0  0  0  0  0  0  0  0  0  0
    1.7110    1.2260    0.0000 H   0  0  0  0  0  0  0  0  0  0  0  0
    1.7150    0.4530    0.0000 H   0  0  0  0  0  0  0  0  0  0  0  0
    5.6180   -2.6920    0.0000 H   0  0  0  0  0  0  0  0  0  0  0  0
    2.8850   -3.3300    0.0000 H   0  0  0  0  0  0  0  0  0  0  0  0
    5.2490   -1.1140    0.0000 H   0  0  0  0  0  0  0  0  0  0  0  0
    2.5170   -1.7520    0.0000 H   0  0  0  0  0  0  0  0  0  0  0  0
  1 10  1  0  0  0  0
  1 17  1  0  0  0  0
  2 21  1  0  0  0  0
  2  8  1  0  0  0  0
  3 18  2  0  0  0  0
  4 19  2  0  0  0  0
  5 20  1  0  0  0  0
  5 18  1  0  0  0  0
  5 28  1  0  0  0  0
  6  7  1  0  0  0  0
  6  9  1  0  0  0  0
  6 20  1  0  0  0  0
  7 19  1  0  0  0  0
  7 29  1  0  0  0  0
  8 30  1  0  0  0  0
  8 31  1  0  0  0  0
  8 32  1  0  0  0  0
  9 12  1  0  0  0  0
  9 33  1  0  0  0  0
  9 11  1  0  0  0  0
 10 23  1  0  0  0  0
 10 34  1  0  0  0  0
 10 22  1  0  0  0  0
 11 38  1  0  0  0  0
 11 37  1  0  0  0  0
 11 14  1  0  0  0  0
 12 36  1  0  0  0  0
 12 35  1  0  0  0  0
 12 13  1  0  0  0  0
 13 40  1  0  0  0  0
 13 39  1  0  0  0  0
 13 15  1  0  0  0  0
 14 16  1  0  0  0  0
 14 42  1  0  0  0  0
 14 41  1  0  0  0  0
 15 44  1  0  0  0  0
 15 43  1  0  0  0  0
 15 16  1  0  0  0  0
 16 45  1  0  0  0  0
 16 46  1  0  0  0  0
 17 48  1  0  0  0  0
 17 47  1  0  0  0  0
 17 18  1  0  0  0  0
 19 22  1  0  0  0  0
 20 22  2  0  0  0  0
 21 24  2  0  0  0  0
 21 25  1  0  0  0  0
 23 26  2  0  0  0  0
 23 27  1  0  0  0  0
 24 26  1  0  0  0  0
 24 49  1  0  0  0  0
 25 50  1  0  0  0  0
 25 27  2  0  0  0  0
 26 51  1  0  0  0  0
 27 52  1  0  0  0  0
M  END
$$$$
73453
  MOE2005           2D

 80 86  0  0  1  0  0  0  0  0999 V2000
    2.3640    3.1360    0.0000 O   0  0  0  0  0  0  0  0  0  0  0  0
    2.9610    2.1240    0.0000 O   0  0  0  0  0  0  0  0  0  0  0  0
    3.3460   -0.9050    0.0000 O   0  0  0  0  0  0  0  0  0  0  0  0
    5.4760    1.5570    0.0000 O   0  0  0  0  0  0  0  0  0  0  0  0
    5.1130    5.4690    0.0000 O   0  0  0  0  0  0  0  0  0  0  0  0
    4.2060    0.5980    0.0000 N   0  0  0  0  0  0  0  0  0  0  0  0
    6.8780   -0.9050    0.0000 N   0  0  0  0  0  0  0  0  0  0  0  0
    4.3540    2.9340    0.0000 N   0  0  0  0  0  0  0  0  0  0  0  0
    3.5330    4.7580    0.0000 N   0  0  0  0  0  0  0  0  0  0  0  0
    8.0600   -5.0220    0.0000 N   0  0  0  0  0  0  0  0  0  0  0  0
    3.0360    0.7170    0.0000 C   0  0  0  0  0  0  0  0  0  0  0  0
    5.9340    3.6450    0.0000 C   0  0  2  0  0  0  0  0  0  0  0  0
    7.7500   -0.4150    0.0000 C   0  0  0  0  0  0  0  0  0  0  0  0
    2.0570    0.9210    0.0000 C   0  0  0  0  0  0  0  0  0  0  0  0
    3.3490   -0.2330    0.0000 C   0  0  0  0  0  0  0  0  0  0  0  0
    6.5180    4.4560    0.0000 C   0  0  0  0  0  0  0  0  0  0  0  0
    6.3440    2.7330    0.0000 C   0  0  0  0  0  0  0  0  0  0  0  0
    3.3590    3.0350    0.0000 C   0  0  1  0  0  0  0  0  0  0  0  0
    3.7030    1.4630    0.0000 C   0  0  2  0  0  0  0  0  0  0  0  0
    2.9490    3.9470    0.0000 C   0  0  2  0  0  0  0  0  0  0  0  0
    4.9390    3.7450    0.0000 C   0  0  1  0  0  0  0  0  0  0  0  0
    6.8620   -1.9470    0.0000 C   0  0  2  0  0  0  0  0  0  0  0  0
    5.0780   -0.8980    0.0000 C   0  0  2  0  0  0  0  0  0  0  0  0
    5.9800   -0.3780    0.0000 C   0  0  0  0  0  0  0  0  0  0  0  0
    2.9440    5.5590    0.0000 C   0  0  0  0  0  0  0  0  0  0  0  0
    2.0030    4.2530    0.0000 C   0  0  0  0  0  0  0  0  0  0  0  0
    2.0000    5.2470    0.0000 C   0  0  0  0  0  0  0  0  0  0  0  0
    7.7280   -2.4470    0.0000 C   0  0  0  0  0  0  0  0  0  0  0  0
    4.2100   -0.4020    0.0000 C   0  0  0  0  0  0  0  0  0  0  0  0
    4.5620    1.9620    0.0000 C   0  0  0  0  0  0  0  0  0  0  0  0
    4.5280    4.6570    0.0000 C   0  0  0  0  0  0  0  0  0  0  0  0
    5.9960   -2.4470    0.0000 C   0  0  0  0  0  0  0  0  0  0  0  0
    5.0860   -1.9400    0.0000 C   0  0  0  0  0  0  0  0  0  0  0  0
    6.8780   -4.9880    0.0000 C   0  0  0  0  0  0  0  0  0  0  0  0
    7.7280   -3.4470    0.0000 C   0  0  0  0  0  0  0  0  0  0  0  0
    5.9960   -3.4470    0.0000 C   0  0  0  0  0  0  0  0  0  0  0  0
    6.8620   -3.9470    0.0000 C   0  0  0  0  0  0  0  0  0  0  0  0
    8.4650   -4.1140    0.0000 C   0  0  0  0  0  0  0  0  0  0  0  0
    5.9800   -5.5160    0.0000 C   0  0  0  0  0  0  0  0  0  0  0  0
    5.0860   -3.9540    0.0000 C   0  0  0  0  0  0  0  0  0  0  0  0
    5.0780   -4.9950    0.0000 C   0  0  0  0  0  0  0  0  0  0  0  0
    2.0020    2.6330    0.0000 H   0  0  0  0  0  0  0  0  0  0  0  0
    4.7420    0.9100    0.0000 H   0  0  0  0  0  0  0  0  0  0  0  0
    8.3700   -5.5590    0.0000 H   0  0  0  0  0  0  0  0  0  0  0  0
    2.8420    1.3060    0.0000 H   0  0  0  0  0  0  0  0  0  0  0  0
    6.5500    3.5820    0.0000 H   0  0  0  0  0  0  0  0  0  0  0  0
    8.0530   -0.9560    0.0000 H   0  0  0  0  0  0  0  0  0  0  0  0
    8.2900   -0.1120    0.0000 H   0  0  0  0  0  0  0  0  0  0  0  0
    7.4460    0.1250    0.0000 H   0  0  0  0  0  0  0  0  0  0  0  0
    2.1840    1.5280    0.0000 H   0  0  0  0  0  0  0  0  0  0  0  0
    1.4500    1.0480    0.0000 H   0  0  0  0  0  0  0  0  0  0  0  0
    1.9310    0.3140    0.0000 H   0  0  0  0  0  0  0  0  0  0  0  0
    2.7600   -0.4270    0.0000 H   0  0  0  0  0  0  0  0  0  0  0  0
    3.5430   -0.8220    0.0000 H   0  0  0  0  0  0  0  0  0  0  0  0
    3.9380   -0.0390    0.0000 H   0  0  0  0  0  0  0  0  0  0  0  0
    7.0210    4.0930    0.0000 H   0  0  0  0  0  0  0  0  0  0  0  0
    6.8810    4.9590    0.0000 H   0  0  0  0  0  0  0  0  0  0  0  0
    6.0150    4.8190    0.0000 H   0  0  0  0  0  0  0  0  0  0  0  0
    5.7780    2.4780    0.0000 H   0  0  0  0  0  0  0  0  0  0  0  0
    6.5980    2.1670    0.0000 H   0  0  0  0  0  0  0  0  0  0  0  0
    6.9090    2.9870    0.0000 H   0  0  0  0  0  0  0  0  0  0  0  0
    2.4150    3.3510    0.0000 H   0  0  0  0  0  0  0  0  0  0  0  0
    5.3010    4.2480    0.0000 H   0  0  0  0  0  0  0  0  0  0  0  0
    7.5580   -1.5520    0.0000 H   0  0  0  0  0  0  0  0  0  0  0  0
    5.0760   -0.2780    0.0000 H   0  0  0  0  0  0  0  0  0  0  0  0
    5.5820    0.0990    0.0000 H   0  0  0  0  0  0  0  0  0  0  0  0
    6.3810    0.0950    0.0000 H   0  0  0  0  0  0  0  0  0  0  0  0
    2.6890    6.1240    0.0000 H   0  0  0  0  0  0  0  0  0  0  0  0
    3.4790    5.8720    0.0000 H   0  0  0  0  0  0  0  0  0  0  0  0
    1.8750    3.6460    0.0000 H   0  0  0  0  0  0  0  0  0  0  0  0
    1.3860    4.3160    0.0000 H   0  0  0  0  0  0  0  0  0  0  0  0
    1.3840    5.1800    0.0000 H   0  0  0  0  0  0  0  0  0  0  0  0
    1.8690    5.8530    0.0000 H   0  0  0  0  0  0  0  0  0  0  0  0
    7.9400   -1.8640    0.0000 H   0  0  0  0  0  0  0  0  0  0  0  0
    8.3380   -2.5540    0.0000 H   0  0  0  0  0  0  0  0  0  0  0  0
    4.5520   -2.2560    0.0000 H   0  0  0  0  0  0  0  0  0  0  0  0
    9.0710   -3.9860    0.0000 H   0  0  0  0  0  0  0  0  0  0  0  0
    5.9820   -6.1360    0.0000 H   0  0  0  0  0  0  0  0  0  0  0  0
    4.5520   -3.6370    0.0000 H   0  0  0  0  0  0  0  0  0  0  0  0
    4.5400   -5.3030    0.0000 H   0  0  0  0  0  0  0  0  0  0  0  0
 18  1  1  6  0  0  0
  1 42  1  0  0  0  0
 18  2  1  1  0  0  0
  2 19  1  0  0  0  0
  3 29  2  0  0  0  0
  4 30  2  0  0  0  0
  5 31  2  0  0  0  0
 19  6  1  6  0  0  0
  6 29  1  0  0  0  0
  6 43  1  0  0  0  0
  7 24  1  0  0  0  0
  7 22  1  0  0  0  0
  7 13  1  0  0  0  0
  8 18  1  0  0  0  0
  8 30  1  0  0  0  0
  8 21  1  0  0  0  0
  9 31  1  0  0  0  0
  9 25  1  0  0  0  0
  9 20  1  0  0  0  0
 10 34  1  0  0  0  0
 10 44  1  0  0  0  0
 10 38  1  0  0  0  0
 19 11  1  1  0  0  0
 11 14  1  0  0  0  0
 11 15  1  0  0  0  0
 11 45  1  0  0  0  0
 12 21  1  0  0  0  0
 12 16  1  0  0  0  0
 12 17  1  6  0  0  0
 12 46  1  1  0  0  0
 13 47  1  0  0  0  0
 13 48  1  0  0  0  0
 13 49  1  0  0  0  0
 14 50  1  0  0  0  0
 14 51  1  0  0  0  0
 14 52  1  0  0  0  0
 15 53  1  0  0  0  0
 15 54  1  0  0  0  0
 15 55  1  0  0  0  0
 16 56  1  0  0  0  0
 16 57  1  0  0  0  0
 16 58  1  0  0  0  0
 17 59  1  0  0  0  0
 17 60  1  0  0  0  0
 17 61  1  0  0  0  0
 18 20  1  0  0  0  0
 19 30  1  0  0  0  0
 20 62  1  1  0  0  0
 20 26  1  6  0  0  0
 21 63  1  1  0  0  0
 21 31  1  0  0  0  0
 22 28  1  6  0  0  0
 22 64  1  1  0  0  0
 22 32  1  0  0  0  0
 23 29  1  1  0  0  0
 23 24  1  0  0  0  0
 23 33  1  0  0  0  0
 23 65  1  6  0  0  0
 24 66  1  0  0  0  0
 24 67  1  0  0  0  0
 25 69  1  0  0  0  0
 25 68  1  0  0  0  0
 25 27  1  0  0  0  0
 26 27  1  0  0  0  0
 26 71  1  0  0  0  0
 26 70  1  0  0  0  0
 27 72  1  0  0  0  0
 27 73  1  0  0  0  0
 28 75  1  0  0  0  0
 28 74  1  0  0  0  0
 28 35  1  0  0  0  0
 32 36  1  0  0  0  0
 32 33  2  0  0  0  0
 33 76  1  0  0  0  0
 34 37  2  0  0  0  0
 34 39  1  0  0  0  0
 35 37  1  0  0  0  0
 35 38  2  0  0  0  0
 36 37  1  0  0  0  0
 36 40  2  0  0  0  0
 38 77  1  0  0  0  0
 39 41  2  0  0  0  0
 39 78  1  0  0  0  0
 40 79  1  0  0  0  0
 40 41  1  0  0  0  0
 41 80  1  0  0  0  0
M  END
$$$$
