1325
  MOE2007           2D

 14 14  0  0  1  0  0  0  0  0999 V2000
    0.9700    2.3280    0.0000 C   0  0  0  0  0  0  0  0  0  0  0  0
    0.9700    1.5030    0.0000 C   0  0  0  0  0  0  0  0  0  0  0  0
    0.2550    1.0900    0.0000 C   0  0  0  0  0  0  0  0  0  0  0  0
   -0.4590    1.5030    0.0000 C   0  0  0  0  0  0  0  0  0  0  0  0
   -0.4590    2.3280    0.0000 C   0  0  0  0  0  0  0  0  0  0  0  0
    0.2550    2.7400    0.0000 C   0  0  0  0  0  0  0  0  0  0  0  0
    0.2550    3.5650    0.0000 C   0  0  0  0  0  0  0  0  0  0  0  0
    0.9700    3.9780    0.0000 C   0  0  1  0  0  0  0  0  0  0  0  0
    0.9700    4.8030    0.0000 C   0  0  0  0  0  0  0  0  0  0  0  0
    0.2550    5.2150    0.0000 O   0  0  0  0  0  0  0  0  0  0  0  0
    1.6840    5.2150    0.0000 O   0  0  0  0  0  0  0  0  0  0  0  0
    1.6840    3.5650    0.0000 N   0  0  0  0  0  0  0  0  0  0  0  0
   -1.1740    1.0900    0.0000 O   0  0  0  0  0  0  0  0  0  0  0  0
    0.2550    0.2650    0.0000 O   0  0  0  0  0  0  0  0  0  0  0  0
  1  2  1  0  0  0  0
  1  6  2  0  0  0  0
  2  3  2  0  0  0  0
  3  4  1  0  0  0  0
  3 14  1  0  0  0  0
  4  5  2  0  0  0  0
  4 13  1  0  0  0  0
  5  6  1  0  0  0  0
  6  7  1  0  0  0  0
  7  8  1  0  0  0  0
  8  9  1  0  0  0  0
  8 12  1  1  0  0  0
  9 10  2  0  0  0  0
  9 11  1  0  0  0  0
M  END
> <MOL_ID>
71

>  <Name_of_compounds>
L-DOPA

>  <Activity_Profiles>
0 0 0 0 0

> <INITIAL_ID>
1325

> <SUM_activity>
0

$$$$
1324
  MOE2007           2D

 28 31  0  0  1  0  0  0  0  0999 V2000
    4.6670    3.3500    0.0000 C   0  0  0  0  0  0  0  0  0  0  0  0
    4.3070    2.6070    0.0000 C   0  0  3  0  0  0  0  0  0  0  0  0
    3.7760    3.2380    0.0000 C   0  0  0  0  0  0  0  0  0  0  0  0
    2.9630    3.0930    0.0000 C   0  0  3  0  0  0  0  0  0  0  0  0
    2.6830    2.3170    0.0000 C   0  0  3  0  0  0  0  0  0  0  0  0
    3.2150    1.6860    0.0000 C   0  0  3  0  0  0  0  0  0  0  0  0
    4.0270    1.8310    0.0000 C   0  0  3  0  0  0  0  0  0  0  0  0
    4.6780    1.3250    0.0000 C   0  0  0  0  0  0  0  0  0  0  0  0
    5.3610    1.7880    0.0000 C   0  0  3  0  0  0  0  0  0  0  0  0
    5.1320    2.5800    0.0000 C   0  0  3  0  0  0  0  0  0  0  0  0
    5.8930    2.8990    0.0000 C   0  0  0  0  0  0  0  0  0  0  0  0
    6.5490    2.4000    0.0000 O   0  0  0  0  0  0  0  0  0  0  0  0
    5.9970    3.7180    0.0000 C   0  0  0  0  0  0  0  0  0  0  0  0
    6.7580    4.0360    0.0000 O   0  0  0  0  0  0  0  0  0  0  0  0
    5.2530    3.3960    0.0000 O   0  0  0  0  0  0  0  0  0  0  0  0
    6.1370    1.5080    0.0000 O   0  0  0  0  0  0  0  0  0  0  0  0
    2.9350    0.9100    0.0000 C   0  0  0  0  0  0  0  0  0  0  0  0
    2.1220    0.7650    0.0000 C   0  0  0  0  0  0  0  0  0  0  0  0
    1.5910    1.3960    0.0000 C   0  0  0  0  0  0  0  0  0  0  0  0
    0.7790    1.2500    0.0000 C   0  0  0  0  0  0  0  0  0  0  0  0
    0.2470    1.8810    0.0000 C   0  0  0  0  0  0  0  0  0  0  0  0
   -0.5650    1.7360    0.0000 O   0  0  0  0  0  0  0  0  0  0  0  0
    0.5270    2.6570    0.0000 C   0  0  0  0  0  0  0  0  0  0  0  0
    1.3390    2.8020    0.0000 C   0  0  0  0  0  0  0  0  0  0  0  0
    1.8710    2.1710    0.0000 C   0  0  3  0  0  0  0  0  0  0  0  0
    2.1510    2.9470    0.0000 C   0  0  0  0  0  0  0  0  0  0  0  0
    3.4840    2.1190    0.0000 F   0  0  0  0  0  0  0  0  0  0  0  0
    2.4320    3.7230    0.0000 O   0  0  0  0  0  0  0  0  0  0  0  0
  1  2  1  0  0  0  0
  2  3  1  0  0  0  0
  2  7  1  0  0  0  0
  2 10  1  0  0  0  0
  3  4  1  0  0  0  0
  4  5  1  0  0  0  0
  4 28  1  0  0  0  0
  5  6  1  0  0  0  0
  5 25  1  0  0  0  0
  5 27  1  0  0  0  0
  6  7  1  0  0  0  0
  6 17  1  0  0  0  0
  7  8  1  0  0  0  0
  8  9  1  0  0  0  0
  9 10  1  0  0  0  0
  9 16  1  0  0  0  0
 10 11  1  0  0  0  0
 10 15  1  0  0  0  0
 11 12  2  0  0  0  0
 11 13  1  0  0  0  0
 13 14  1  0  0  0  0
 17 18  1  0  0  0  0
 18 19  1  0  0  0  0
 19 20  2  0  0  0  0
 19 25  1  0  0  0  0
 20 21  1  0  0  0  0
 21 22  2  0  0  0  0
 21 23  1  0  0  0  0
 23 24  2  0  0  0  0
 24 25  1  0  0  0  0
 25 26  1  0  0  0  0
M  END
> <MOL_ID>
70

>  <Name_of_compounds>
Triamcinolone

>  <Activity_Profiles>
0 0 0 0 0

> <INITIAL_ID>
1324

> <SUM_activity>
0

$$$$
1330
  MOE2007           2D

 17 18  0  0  0  0  0  0  0  0999 V2000
    0.5420   -0.5150    0.0000 C   0  0  0  0  0  0  0  0  0  0  0  0
    1.3550   -0.3720    0.0000 C   0  0  0  0  0  0  0  0  0  0  0  0
    1.8850   -1.0040    0.0000 C   0  0  0  0  0  0  0  0  0  0  0  0
    2.6000   -1.4160    0.0000 C   0  0  0  0  0  0  0  0  0  0  0  0
    3.3140   -1.0040    0.0000 O   0  0  0  0  0  0  0  0  0  0  0  0
    2.6000   -2.2410    0.0000 N   0  0  0  0  0  0  0  0  0  0  0  0
    1.8850   -2.6540    0.0000 C   0  0  0  0  0  0  0  0  0  0  0  0
    1.8850   -3.4790    0.0000 O   0  0  0  0  0  0  0  0  0  0  0  0
    1.1710   -2.2410    0.0000 N   0  0  0  0  0  0  0  0  0  0  0  0
    1.1710   -1.4160    0.0000 C   0  0  0  0  0  0  0  0  0  0  0  0
    0.4560   -1.0040    0.0000 O   0  0  0  0  0  0  0  0  0  0  0  0
    2.4160   -0.3720    0.0000 C   0  0  0  0  0  0  0  0  0  0  0  0
    2.1330    0.4040    0.0000 C   0  0  0  0  0  0  0  0  0  0  0  0
    2.6640    1.0360    0.0000 C   0  0  0  0  0  0  0  0  0  0  0  0
    3.4760    0.8920    0.0000 C   0  0  0  0  0  0  0  0  0  0  0  0
    3.7580    0.1170    0.0000 C   0  0  0  0  0  0  0  0  0  0  0  0
    3.2280   -0.5150    0.0000 C   0  0  0  0  0  0  0  0  0  0  0  0
  1  2  1  0  0  0  0
  2  3  1  0  0  0  0
  3  4  1  0  0  0  0
  3 10  1  0  0  0  0
  3 12  1  0  0  0  0
  4  5  2  0  0  0  0
  4  6  1  0  0  0  0
  6  7  1  0  0  0  0
  7  8  2  0  0  0  0
  7  9  1  0  0  0  0
  9 10  1  0  0  0  0
 10 11  2  0  0  0  0
 12 13  1  0  0  0  0
 12 17  2  0  0  0  0
 13 14  2  0  0  0  0
 14 15  1  0  0  0  0
 15 16  2  0  0  0  0
 16 17  1  0  0  0  0
M  END
> <MOL_ID>
75

>  <Name_of_compounds>
Phenobarbitol

>  <Activity_Profiles>
0 0 0 0 0

> <INITIAL_ID>
1330

> <SUM_activity>
0

$$$$
1319
  MOE2007           2D

 51 53  0  0  1  0  0  0  0  0999 V2000
   -6.8670  -20.1560    0.0000 C   0  0  0  0  0  0  0  0  0  0  0  0
   -6.1800  -20.6130    0.0000 C   0  0  0  0  0  0  0  0  0  0  0  0
   -6.2330  -21.4360    0.0000 O   0  0  0  0  0  0  0  0  0  0  0  0
   -5.4410  -20.2470    0.0000 S   0  0  0  0  0  0  0  0  0  0  0  0
   -4.7540  -20.7050    0.0000 C   0  0  0  0  0  0  0  0  0  0  0  0
   -4.0150  -20.3390    0.0000 C   0  0  0  0  0  0  0  0  0  0  0  0
   -3.3280  -20.7960    0.0000 N   0  0  0  0  0  0  0  0  0  0  0  0
   -2.5890  -20.4300    0.0000 C   0  0  0  0  0  0  0  0  0  0  0  0
   -2.5360  -19.6070    0.0000 O   0  0  0  0  0  0  0  0  0  0  0  0
   -1.9020  -20.8880    0.0000 C   0  0  0  0  0  0  0  0  0  0  0  0
   -1.1630  -20.5220    0.0000 C   0  0  0  0  0  0  0  0  0  0  0  0
   -0.4760  -20.9790    0.0000 N   0  0  0  0  0  0  0  0  0  0  0  0
    0.2630  -20.6130    0.0000 C   0  0  0  0  0  0  0  0  0  0  0  0
    0.3160  -19.7900    0.0000 O   0  0  0  0  0  0  0  0  0  0  0  0
    0.9500  -21.0700    0.0000 C   0  0  3  0  0  0  0  0  0  0  0  0
    1.6890  -20.7050    0.0000 C   0  0  0  0  0  0  0  0  0  0  0  0
    1.3230  -19.9650    0.0000 C   0  0  0  0  0  0  0  0  0  0  0  0
    2.0550  -21.4440    0.0000 C   0  0  0  0  0  0  0  0  0  0  0  0
    2.4280  -20.3390    0.0000 C   0  0  0  0  0  0  0  0  0  0  0  0
    3.1150  -20.7960    0.0000 O   0  0  0  0  0  0  0  0  0  0  0  0
    3.8540  -20.4300    0.0000 P   0  0  3  0  0  0  0  0  0  0  0  0
    3.4890  -19.6910    0.0000 O   0  0  0  0  0  0  0  0  0  0  0  0
    4.2200  -21.1700    0.0000 O   0  0  0  0  0  0  0  0  0  0  0  0
    4.5940  -20.0640    0.0000 O   0  0  0  0  0  0  0  0  0  0  0  0
    5.2800  -20.5220    0.0000 P   0  0  3  0  0  0  0  0  0  0  0  0
    4.8230  -21.2080    0.0000 O   0  0  0  0  0  0  0  0  0  0  0  0
    5.7380  -19.8350    0.0000 O   0  0  0  0  0  0  0  0  0  0  0  0
    5.9670  -20.9790    0.0000 O   0  0  0  0  0  0  0  0  0  0  0  0
    6.7060  -20.6130    0.0000 C   0  0  0  0  0  0  0  0  0  0  0  0
    7.3930  -21.0700    0.0000 C   0  0  3  0  0  0  0  0  0  0  0  0
    8.1670  -20.7840    0.0000 C   0  0  3  0  0  0  0  0  0  0  0  0
    8.6780  -21.4310    0.0000 C   0  0  3  0  0  0  0  0  0  0  0  0
    8.2210  -22.1180    0.0000 C   0  0  3  0  0  0  0  0  0  0  0  0
    7.4270  -21.8950    0.0000 O   0  0  0  0  0  0  0  0  0  0  0  0
    8.5080  -22.8910    0.0000 N   0  0  0  0  0  0  0  0  0  0  0  0
    8.0500  -23.5780    0.0000 C   0  0  0  0  0  0  0  0  0  0  0  0
    8.5620  -24.2250    0.0000 N   0  0  0  0  0  0  0  0  0  0  0  0
    9.3360  -23.9380    0.0000 C   0  0  0  0  0  0  0  0  0  0  0  0
    9.3020  -23.1140    0.0000 C   0  0  0  0  0  0  0  0  0  0  0  0
    9.9990  -22.6730    0.0000 N   0  0  0  0  0  0  0  0  0  0  0  0
   10.7300  -23.0560    0.0000 C   0  0  0  0  0  0  0  0  0  0  0  0
   10.7630  -23.8800    0.0000 N   0  0  0  0  0  0  0  0  0  0  0  0
   10.0660  -24.3220    0.0000 C   0  0  0  0  0  0  0  0  0  0  0  0
   10.1000  -25.1460    0.0000 N   0  0  0  0  0  0  0  0  0  0  0  0
    9.5030  -21.3980    0.0000 O   0  0  0  0  0  0  0  0  0  0  0  0
    8.3900  -19.9900    0.0000 O   0  0  0  0  0  0  0  0  0  0  0  0
    9.1890  -19.7850    0.0000 P   0  0  0  0  0  0  0  0  0  0  0  0
    9.3930  -20.5850    0.0000 O   0  0  0  0  0  0  0  0  0  0  0  0
    8.9850  -18.9860    0.0000 O   0  0  0  0  0  0  0  0  0  0  0  0
    9.9880  -19.5810    0.0000 O   0  0  0  0  0  0  0  0  0  0  0  0
    0.8970  -21.8940    0.0000 O   0  0  0  0  0  0  0  0  0  0  0  0
  1  2  1  0  0  0  0
  2  3  2  0  0  0  0
  2  4  1  0  0  0  0
  4  5  1  0  0  0  0
  5  6  1  0  0  0  0
  6  7  1  0  0  0  0
  7  8  1  0  0  0  0
  8  9  2  0  0  0  0
  8 10  1  0  0  0  0
 10 11  1  0  0  0  0
 11 12  1  0  0  0  0
 12 13  1  0  0  0  0
 13 14  2  0  0  0  0
 13 15  1  0  0  0  0
 15 16  1  0  0  0  0
 15 51  1  0  0  0  0
 16 17  1  0  0  0  0
 16 18  1  0  0  0  0
 16 19  1  0  0  0  0
 19 20  1  0  0  0  0
 20 21  1  0  0  0  0
 21 22  2  0  0  0  0
 21 23  1  0  0  0  0
 21 24  1  0  0  0  0
 24 25  1  0  0  0  0
 25 26  2  0  0  0  0
 25 27  1  0  0  0  0
 25 28  1  0  0  0  0
 28 29  1  0  0  0  0
 29 30  1  0  0  0  0
 30 31  1  0  0  0  0
 30 34  1  0  0  0  0
 31 32  1  0  0  0  0
 31 46  1  0  0  0  0
 32 33  1  0  0  0  0
 32 45  1  0  0  0  0
 33 34  1  0  0  0  0
 33 35  1  0  0  0  0
 35 36  1  0  0  0  0
 35 39  1  0  0  0  0
 36 37  2  0  0  0  0
 37 38  1  0  0  0  0
 38 39  1  0  0  0  0
 38 43  2  0  0  0  0
 39 40  2  0  0  0  0
 40 41  1  0  0  0  0
 41 42  2  0  0  0  0
 42 43  1  0  0  0  0
 43 44  1  0  0  0  0
 46 47  1  0  0  0  0
 47 48  2  0  0  0  0
 47 49  1  0  0  0  0
 47 50  1  0  0  0  0
M  END
> <MOL_ID>
67

>  <Name_of_compounds>
Acetyl CoA

>  <Activity_Profiles>
0 0 0 0 0

> <INITIAL_ID>
1319

> <SUM_activity>
0

$$$$
1318
  MOE2007           2D

 14 13  0  0  1  0  0  0  0  0999 V2000
    8.0330   -0.4260    0.0000 C   0  0  0  0  0  0  0  0  0  0  0  0
    8.0330    0.3990    0.0000 C   0  0  0  0  0  0  0  0  0  0  0  0
    8.7480    0.8120    0.0000 O   0  0  0  0  0  0  0  0  0  0  0  0
    7.3180    0.8120    0.0000 O   0  0  0  0  0  0  0  0  0  0  0  0
    7.3180    1.6370    0.0000 C   0  0  2  0  0  0  0  0  0  0  0  0
    6.6040    2.0490    0.0000 C   0  0  0  0  0  0  0  0  0  0  0  0
    5.8900    1.6370    0.0000 C   0  0  0  0  0  0  0  0  0  0  0  0
    5.1750    2.0490    0.0000 O   0  0  0  0  0  0  0  0  0  0  0  0
    5.8900    0.8120    0.0000 O   0  0  0  0  0  0  0  0  0  0  0  0
    8.0330    2.0490    0.0000 C   0  0  0  0  0  0  0  0  0  0  0  0
    8.7480    1.6370    0.0000 N   0  3  0  0  0  0  0  0  0  0  0  0
    8.3350    0.9220    0.0000 C   0  0  0  0  0  0  0  0  0  0  0  0
    9.1600    2.3510    0.0000 C   0  0  0  0  0  0  0  0  0  0  0  0
    9.4620    1.2240    0.0000 C   0  0  0  0  0  0  0  0  0  0  0  0
  1  2  1  0  0  0  0
  2  3  2  0  0  0  0
  2  4  1  0  0  0  0
  4  5  1  0  0  0  0
  5  6  1  0  0  0  0
  5 10  1  6  0  0  0
  6  7  1  0  0  0  0
  7  8  2  0  0  0  0
  7  9  1  0  0  0  0
 10 11  1  0  0  0  0
 11 12  1  0  0  0  0
 11 13  1  0  0  0  0
 11 14  1  0  0  0  0
M  CHG  1  11   1
M  END
> <MOL_ID>
66

>  <Name_of_compounds>
Acetyl-L-Carnitine

>  <Activity_Profiles>
0 0 0 0 0

> <INITIAL_ID>
1318

> <SUM_activity>
0

$$$$
1323
  MOE2007           2D

 11 10  0  0  1  0  0  0  0  0999 V2000
    4.5240   -2.6530    0.0000 C   0  0  0  0  0  0  0  0  0  0  0  0
    4.9360   -1.9380    0.0000 N   0  3  0  0  0  0  0  0  0  0  0  0
    4.2220   -1.5260    0.0000 C   0  0  0  0  0  0  0  0  0  0  0  0
    5.3490   -1.2240    0.0000 C   0  0  0  0  0  0  0  0  0  0  0  0
    5.6510   -2.3510    0.0000 C   0  0  0  0  0  0  0  0  0  0  0  0
    6.3660   -1.9380    0.0000 C   0  0  1  0  0  0  0  0  0  0  0  0
    7.0800   -2.3510    0.0000 C   0  0  0  0  0  0  0  0  0  0  0  0
    7.7940   -1.9380    0.0000 C   0  0  0  0  0  0  0  0  0  0  0  0
    7.7940   -1.1140    0.0000 O   0  0  0  0  0  0  0  0  0  0  0  0
    8.5090   -2.3510    0.0000 O   0  0  0  0  0  0  0  0  0  0  0  0
    6.3660   -1.1140    0.0000 O   0  0  0  0  0  0  0  0  0  0  0  0
  1  2  1  0  0  0  0
  2  3  1  0  0  0  0
  2  4  1  0  0  0  0
  2  5  1  0  0  0  0
  5  6  1  0  0  0  0
  6  7  1  0  0  0  0
  6 11  1  6  0  0  0
  7  8  1  0  0  0  0
  8  9  2  0  0  0  0
  8 10  1  0  0  0  0
M  CHG  1   2   1
M  END
> <MOL_ID>
69

>  <Name_of_compounds>
L-Carnitine

>  <Activity_Profiles>
0 0 0 0 0

> <INITIAL_ID>
1323

> <SUM_activity>
0

$$$$
1335
  MOE2007           2D

 14 15  0  0  0  0  0  0  0  0999 V2000
    5.2340    2.7110    0.0000 C   0  0  0  0  0  0  0  0  0  0  0  0
    5.9480    2.2980    0.0000 O   0  0  0  0  0  0  0  0  0  0  0  0
    5.9480    1.4730    0.0000 C   0  0  0  0  0  0  0  0  0  0  0  0
    6.6630    1.0610    0.0000 C   0  0  0  0  0  0  0  0  0  0  0  0
    6.6630    0.2360    0.0000 C   0  0  0  0  0  0  0  0  0  0  0  0
    5.9480   -0.1770    0.0000 C   0  0  0  0  0  0  0  0  0  0  0  0
    5.2340    0.2360    0.0000 C   0  0  0  0  0  0  0  0  0  0  0  0
    5.2340    1.0610    0.0000 C   0  0  0  0  0  0  0  0  0  0  0  0
    4.4490    1.3160    0.0000 O   0  0  0  0  0  0  0  0  0  0  0  0
    3.9640    0.6480    0.0000 C   0  0  0  0  0  0  0  0  0  0  0  0
    4.4490   -0.0190    0.0000 O   0  0  0  0  0  0  0  0  0  0  0  0
    7.3770   -0.1770    0.0000 C   0  0  0  0  0  0  0  0  0  0  0  0
    8.0920    0.2360    0.0000 C   0  0  0  0  0  0  0  0  0  0  0  0
    8.8060   -0.1770    0.0000 C   0  0  0  0  0  0  0  0  0  0  0  0
  1  2  1  0  0  0  0
  2  3  1  0  0  0  0
  3  4  1  0  0  0  0
  3  8  2  0  0  0  0
  4  5  2  0  0  0  0
  5  6  1  0  0  0  0
  5 12  1  0  0  0  0
  6  7  2  0  0  0  0
  7  8  1  0  0  0  0
  7 11  1  0  0  0  0
  8  9  1  0  0  0  0
  9 10  1  0  0  0  0
 10 11  1  0  0  0  0
 12 13  1  0  0  0  0
 13 14  2  0  0  0  0
M  END
> <MOL_ID>
80

>  <Name_of_compounds>
Myristicin

>  <Activity_Profiles>
0 0 0 0 0

> <INITIAL_ID>
1335

> <SUM_activity>
0

$$$$
1334
  MOE2007           2D

 21 25  0  0  1  0  0  0  0  0999 V2000
    8.6960    1.8410    0.0000 C   0  0  0  0  0  0  0  0  0  0  0  0
    8.2190    2.5150    0.0000 C   0  0  0  0  0  0  0  0  0  0  0  0
    8.5640    3.2640    0.0000 C   0  0  0  0  0  0  0  0  0  0  0  0
    7.3760    2.4360    0.0000 C   0  0  3  0  0  0  0  0  0  0  0  0
    6.8540    3.0540    0.0000 C   0  0  3  0  0  0  0  0  0  0  0  0
    6.0240    3.2600    0.0000 C   0  0  3  0  0  0  0  0  0  0  0  0
    5.5810    2.5590    0.0000 C   0  0  3  0  0  0  0  0  0  0  0  0
    5.9190    1.8100    0.0000 C   0  0  3  0  0  0  0  0  0  0  0  0
    6.9570    1.7180    0.0000 C   0  0  3  0  0  0  0  0  0  0  0  0
    6.3490    1.5430    0.0000 C   0  0  0  0  0  0  0  0  0  0  0  0
    6.8050    0.7580    0.0000 O   0  0  0  0  0  0  0  0  0  0  0  0
    6.2450    2.4510    0.0000 O   0  0  0  0  0  0  0  0  0  0  0  0
    5.2100    1.3100    0.0000 C   0  0  0  0  0  0  0  0  0  0  0  0
    4.5150    1.7780    0.0000 C   0  0  3  0  0  0  0  0  0  0  0  0
    4.7350    2.5960    0.0000 C   0  0  3  0  0  0  0  0  0  0  0  0
    3.9250    2.3470    0.0000 O   0  0  0  0  0  0  0  0  0  0  0  0
    4.6540    3.4490    0.0000 C   0  0  0  0  0  0  0  0  0  0  0  0
    3.9210    3.8640    0.0000 O   0  0  0  0  0  0  0  0  0  0  0  0
    5.4010    3.8350    0.0000 O   0  0  0  0  0  0  0  0  0  0  0  0
    5.8390    0.8630    0.0000 O   0  0  0  0  0  0  0  0  0  0  0  0
    5.5500    1.7470    0.0000 C   0  0  0  0  0  0  0  0  0  0  0  0
  1  2  1  0  0  0  0
  2  3  2  0  0  0  0
  2  4  1  0  0  0  0
  4  5  1  0  0  0  0
  4  9  1  0  0  0  0
  5  6  1  0  0  0  0
  5 12  1  0  0  0  0
  6  7  1  0  0  0  0
  6 19  1  0  0  0  0
  7  8  1  0  0  0  0
  7 15  1  0  0  0  0
  7 21  1  0  0  0  0
  8  9  1  0  0  0  0
  8 13  1  0  0  0  0
  8 20  1  0  0  0  0
  9 10  1  0  0  0  0
 10 11  2  0  0  0  0
 10 12  1  0  0  0  0
 13 14  1  0  0  0  0
 14 15  1  0  0  0  0
 14 16  1  0  0  0  0
 15 16  1  0  0  0  0
 15 17  1  0  0  0  0
 17 18  2  0  0  0  0
 17 19  1  0  0  0  0
M  END
> <MOL_ID>
79

>  <Name_of_compounds>
picrotoxinin

>  <Activity_Profiles>
0 0 0 0 0

> <INITIAL_ID>
1334

> <SUM_activity>
0

$$$$
2075
  MOE2007           2D

 14 15  0  0  0  0  0  0  0  0999 V2000
    1.9500   -5.4690    0.0000 C   0  0  0  0  0  0  0  0  0  0  0  0
    1.9500   -6.2940    0.0000 C   0  0  0  0  0  0  0  0  0  0  0  0
    2.6170   -6.7790    0.0000 N   0  0  0  0  0  0  0  0  0  0  0  0
    2.3620   -7.5640    0.0000 C   0  0  0  0  0  0  0  0  0  0  0  0
    2.8470   -8.2310    0.0000 C   0  0  0  0  0  0  0  0  0  0  0  0
    3.3320   -8.8980    0.0000 C   0  0  0  0  0  0  0  0  0  0  0  0
    3.8170   -9.5660    0.0000 C   0  0  0  0  0  0  0  0  0  0  0  0
    4.6370   -9.4800    0.0000 C   0  0  0  0  0  0  0  0  0  0  0  0
    5.1220  -10.1470    0.0000 C   0  0  0  0  0  0  0  0  0  0  0  0
    4.7870  -10.9010    0.0000 C   0  0  0  0  0  0  0  0  0  0  0  0
    3.9660  -10.9870    0.0000 N   0  0  0  0  0  0  0  0  0  0  0  0
    3.4810  -10.3200    0.0000 C   0  0  0  0  0  0  0  0  0  0  0  0
    1.5370   -7.5640    0.0000 C   0  0  0  0  0  0  0  0  0  0  0  0
    1.2820   -6.7790    0.0000 S   0  0  0  0  0  0  0  0  0  0  0  0
  1  2  1  0  0  0  0
  2  3  2  0  0  0  0
  2 14  1  0  0  0  0
  3  4  1  0  0  0  0
  4  5  1  0  0  0  0
  4 13  2  0  0  0  0
  5  6  3  0  0  0  0
  6  7  1  0  0  0  0
  7  8  1  0  0  0  0
  7 12  2  0  0  0  0
  8  9  2  0  0  0  0
  9 10  1  0  0  0  0
 10 11  2  0  0  0  0
 11 12  1  0  0  0  0
 13 14  1  0  0  0  0
M  END
> <MOL_ID>
108

>  <Name_of_compounds>
3-[(2-Methyl-1,3-thiazol-4-yl)ethynyl]pyridine

>  <Activity_Profiles>
0 0 0 0 0

> <INITIAL_ID>
2075

> <SUM_activity>
0

$$$$
1332
  MOE2007           2D

 17 18  0  0  1  0  0  0  0  0999 V2000
   -0.2520   -3.4940    0.0000 C   0  0  0  0  0  0  0  0  0  0  0  0
    0.4620   -3.9070    0.0000 O   0  0  0  0  0  0  0  0  0  0  0  0
    0.4620   -4.7320    0.0000 C   0  0  0  0  0  0  0  0  0  0  0  0
    1.1770   -5.1440    0.0000 C   0  0  0  0  0  0  0  0  0  0  0  0
    1.1770   -5.9690    0.0000 C   0  0  0  0  0  0  0  0  0  0  0  0
    1.8910   -6.3820    0.0000 O   0  0  0  0  0  0  0  0  0  0  0  0
    0.4620   -6.3820    0.0000 O   0  0  0  0  0  0  0  0  0  0  0  0
   -0.2520   -5.9690    0.0000 C   0  0  3  0  0  0  0  0  0  0  0  0
   -0.2520   -5.1440    0.0000 C   0  0  0  0  0  0  0  0  0  0  0  0
   -0.9670   -6.3820    0.0000 C   0  0  0  0  0  0  0  0  0  0  0  0
   -0.9670   -7.2070    0.0000 C   0  0  0  0  0  0  0  0  0  0  0  0
   -1.6810   -7.6190    0.0000 C   0  0  0  0  0  0  0  0  0  0  0  0
   -1.6810   -8.4440    0.0000 C   0  0  0  0  0  0  0  0  0  0  0  0
   -2.3960   -8.8570    0.0000 C   0  0  0  0  0  0  0  0  0  0  0  0
   -3.1100   -8.4440    0.0000 C   0  0  0  0  0  0  0  0  0  0  0  0
   -3.1100   -7.6190    0.0000 C   0  0  0  0  0  0  0  0  0  0  0  0
   -2.3960   -7.2070    0.0000 C   0  0  0  0  0  0  0  0  0  0  0  0
  1  2  1  0  0  0  0
  2  3  1  0  0  0  0
  3  4  2  0  0  0  0
  3  9  1  0  0  0  0
  4  5  1  0  0  0  0
  5  6  2  0  0  0  0
  5  7  1  0  0  0  0
  7  8  1  0  0  0  0
  8  9  1  0  0  0  0
  8 10  1  0  0  0  0
 10 11  2  0  0  0  0
 11 12  1  0  0  0  0
 12 13  1  0  0  0  0
 12 17  2  0  0  0  0
 13 14  2  0  0  0  0
 14 15  1  0  0  0  0
 15 16  2  0  0  0  0
 16 17  1  0  0  0  0
M  END
> <MOL_ID>
77

>  <Name_of_compounds>
D,L Kavain

>  <Activity_Profiles>
0 0 0 0 0

> <INITIAL_ID>
1332

> <SUM_activity>
0

$$$$
1331
  MOE2007           2D

 19 23  0  0  1  0  0  0  0  0999 V2000
    4.8520    0.8820    0.0000 C   0  0  0  0  0  0  0  0  0  0  0  0
    4.8760    0.0520    0.0000 C   0  0  3  0  0  0  0  0  0  0  0  0
    4.1710   -0.2880    0.0000 C   0  0  3  0  0  0  0  0  0  0  0  0
    3.7030   -0.8800    0.0000 C   0  0  3  0  0  0  0  0  0  0  0  0
    4.5320   -0.6220    0.0000 C   0  0  3  0  0  0  0  0  0  0  0  0
    5.1920   -1.1060    0.0000 C   0  0  3  0  0  0  0  0  0  0  0  0
    5.6610   -0.4270    0.0000 C   0  0  3  0  0  0  0  0  0  0  0  0
    6.0150   -1.1730    0.0000 O   0  0  0  0  0  0  0  0  0  0  0  0
    2.9980   -1.2200    0.0000 C   0  0  3  0  0  0  0  0  0  0  0  0
    2.2890   -0.6310    0.0000 C   0  0  0  0  0  0  0  0  0  0  0  0
    2.6820   -0.0620    0.0000 C   0  0  0  0  0  0  0  0  0  0  0  0
    3.3430   -0.5470    0.0000 C   0  0  3  0  0  0  0  0  0  0  0  0
    3.0230   -2.0500    0.0000 C   0  0  0  0  0  0  0  0  0  0  0  0
    3.4990   -2.7240    0.0000 Cl  0  0  0  0  0  0  0  0  0  0  0  0
    2.4340   -2.6280    0.0000 Cl  0  0  0  0  0  0  0  0  0  0  0  0
    3.4780    0.2670    0.0000 Cl  0  0  0  0  0  0  0  0  0  0  0  0
    2.5460    0.7510    0.0000 Cl  0  0  0  0  0  0  0  0  0  0  0  0
    1.4720   -0.7430    0.0000 Cl  0  0  0  0  0  0  0  0  0  0  0  0
    2.6500   -1.9680    0.0000 Cl  0  0  0  0  0  0  0  0  0  0  0  0
  1  2  1  0  0  0  0
  1  5  1  0  0  0  0
  2  3  1  0  0  0  0
  2  7  1  0  0  0  0
  3  4  1  0  0  0  0
  3 12  1  0  0  0  0
  4  5  1  0  0  0  0
  4  9  1  0  0  0  0
  5  6  1  0  0  0  0
  6  7  1  0  0  0  0
  6  8  1  0  0  0  0
  7  8  1  0  0  0  0
  9 10  1  0  0  0  0
  9 13  1  0  0  0  0
  9 19  1  0  0  0  0
 10 11  2  0  0  0  0
 10 18  1  0  0  0  0
 11 12  1  0  0  0  0
 11 17  1  0  0  0  0
 12 13  1  0  0  0  0
 12 16  1  0  0  0  0
 13 14  1  0  0  0  0
 13 15  1  0  0  0  0
M  END
> <MOL_ID>
76

>  <Name_of_compounds>
Dieldrin

>  <Activity_Profiles>
0 0 0 0 0

> <INITIAL_ID>
1331

> <SUM_activity>
0

$$$$
1333
  MOE2007           2D

 11 11  0  0  0  0  0  0  0  0999 V2000
    0.7140   -0.4120    0.0000 C   0  0  0  0  0  0  0  0  0  0  0  0
    0.0000    0.0000    0.0000 C   0  0  0  0  0  0  0  0  0  0  0  0
    0.0000    0.8250    0.0000 C   0  0  0  0  0  0  0  0  0  0  0  0
    0.7140    1.2380    0.0000 C   0  0  0  0  0  0  0  0  0  0  0  0
    1.4290    0.8250    0.0000 C   0  0  0  0  0  0  0  0  0  0  0  0
    1.4290    0.0000    0.0000 C   0  0  0  0  0  0  0  0  0  0  0  0
    0.7140    2.0620    0.0000 N   0  0  0  0  0  0  0  0  0  0  0  0
    1.4290    2.4750    0.0000 N   0  0  0  0  0  0  0  0  0  0  0  0
    1.4290    3.3000    0.0000 C   0  0  0  0  0  0  0  0  0  0  0  0
    0.7140    3.7120    0.0000 O   0  0  0  0  0  0  0  0  0  0  0  0
    2.1430    3.7120    0.0000 N   0  0  0  0  0  0  0  0  0  0  0  0
  1  2  1  0  0  0  0
  1  6  2  0  0  0  0
  2  3  2  0  0  0  0
  3  4  1  0  0  0  0
  4  5  2  0  0  0  0
  4  7  1  0  0  0  0
  5  6  1  0  0  0  0
  7  8  1  0  0  0  0
  8  9  1  0  0  0  0
  9 10  2  0  0  0  0
  9 11  1  0  0  0  0
M  END
> <MOL_ID>
78

>  <Name_of_compounds>
1-phenylsemicarbazide

>  <Activity_Profiles>
0 0 0 0 0

> <INITIAL_ID>
1333

> <SUM_activity>
0

$$$$
2101
  MOE2007           2D

 20 23  0  0  0  0  0  0  0  0999 V2000
    6.9290    4.9590    0.0000 C   0  0  0  0  0  0  0  0  0  0  0  0
    6.7450    4.1550    0.0000 C   0  0  0  0  0  0  0  0  0  0  0  0
    5.9570    3.9120    0.0000 C   0  0  0  0  0  0  0  0  0  0  0  0
    5.7730    3.1080    0.0000 C   0  0  0  0  0  0  0  0  0  0  0  0
    6.3780    2.5460    0.0000 N   0  0  0  0  0  0  0  0  0  0  0  0
    7.1660    2.7900    0.0000 C   0  0  0  0  0  0  0  0  0  0  0  0
    7.3500    3.5940    0.0000 C   0  0  0  0  0  0  0  0  0  0  0  0
    5.0300    2.7500    0.0000 N   0  0  0  0  0  0  0  0  0  0  0  0
    4.2870    3.1080    0.0000 C   0  0  0  0  0  0  0  0  0  0  0  0
    4.1030    3.9120    0.0000 C   0  0  0  0  0  0  0  0  0  0  0  0
    3.3150    4.1550    0.0000 C   0  0  0  0  0  0  0  0  0  0  0  0
    2.7100    3.5940    0.0000 C   0  0  0  0  0  0  0  0  0  0  0  0
    2.8940    2.7900    0.0000 C   0  0  0  0  0  0  0  0  0  0  0  0
    3.6820    2.5460    0.0000 N   0  0  0  0  0  0  0  0  0  0  0  0
    4.6180    4.5570    0.0000 C   0  0  0  0  0  0  0  0  0  0  0  0
    4.2600    5.3000    0.0000 O   0  0  0  0  0  0  0  0  0  0  0  0
    5.4430    4.5570    0.0000 N   0  0  0  0  0  0  0  0  0  0  0  0
    5.0300    1.9250    0.0000 C   0  0  0  0  0  0  0  0  0  0  0  0
    5.4430    1.2100    0.0000 C   0  0  0  0  0  0  0  0  0  0  0  0
    4.6180    1.2100    0.0000 C   0  0  0  0  0  0  0  0  0  0  0  0
  1  2  1  0  0  0  0
  2  3  1  0  0  0  0
  2  7  2  0  0  0  0
  3  4  2  0  0  0  0
  3 17  1  0  0  0  0
  4  5  1  0  0  0  0
  4  8  1  0  0  0  0
  5  6  2  0  0  0  0
  6  7  1  0  0  0  0
  8  9  1  0  0  0  0
  8 18  1  0  0  0  0
  9 10  1  0  0  0  0
  9 14  2  0  0  0  0
 10 11  2  0  0  0  0
 10 15  1  0  0  0  0
 11 12  1  0  0  0  0
 12 13  2  0  0  0  0
 13 14  1  0  0  0  0
 15 16  2  0  0  0  0
 15 17  1  0  0  0  0
 18 19  1  0  0  0  0
 18 20  1  0  0  0  0
 19 20  1  0  0  0  0
M  END
> <MOL_ID>
114

>  <Name_of_compounds>
Nevirapine

>  <Activity_Profiles>
0 0 0 0 0

> <INITIAL_ID>
2101

> <SUM_activity>
0

$$$$
2102
  MOE2007           2D

 15 16  0  0  1  0  0  0  0  0999 V2000
    0.3900   -3.5890    0.0000 C   0  0  0  0  0  0  0  0  0  0  0  0
    0.1350   -4.3740    0.0000 C   0  0  0  0  0  0  0  0  0  0  0  0
   -0.6900   -4.3740    0.0000 C   0  0  3  0  0  0  0  0  0  0  0  0
   -0.9440   -3.5890    0.0000 O   0  0  0  0  0  0  0  0  0  0  0  0
   -0.2770   -3.1040    0.0000 C   0  0  3  0  0  0  0  0  0  0  0  0
   -0.2770   -2.2790    0.0000 C   0  0  0  0  0  0  0  0  0  0  0  0
    0.4370   -1.8660    0.0000 O   0  0  0  0  0  0  0  0  0  0  0  0
   -1.1740   -5.0410    0.0000 N   0  0  0  0  0  0  0  0  0  0  0  0
   -0.8390   -5.7950    0.0000 C   0  0  0  0  0  0  0  0  0  0  0  0
   -1.3240   -6.4620    0.0000 C   0  0  0  0  0  0  0  0  0  0  0  0
   -2.1440   -6.3760    0.0000 C   0  0  0  0  0  0  0  0  0  0  0  0
   -2.4800   -5.6220    0.0000 N   0  0  0  0  0  0  0  0  0  0  0  0
   -1.9950   -4.9550    0.0000 C   0  0  0  0  0  0  0  0  0  0  0  0
   -2.3310   -4.2010    0.0000 O   0  0  0  0  0  0  0  0  0  0  0  0
   -2.6290   -7.0430    0.0000 N   0  0  0  0  0  0  0  0  0  0  0  0
  1  2  1  0  0  0  0
  1  5  1  0  0  0  0
  2  3  1  0  0  0  0
  3  4  1  0  0  0  0
  3  8  1  0  0  0  0
  4  5  1  0  0  0  0
  5  6  1  0  0  0  0
  6  7  1  0  0  0  0
  8  9  1  0  0  0  0
  8 13  1  0  0  0  0
  9 10  2  0  0  0  0
 10 11  1  0  0  0  0
 11 12  2  0  0  0  0
 11 15  1  0  0  0  0
 12 13  1  0  0  0  0
 13 14  2  0  0  0  0
M  END
> <MOL_ID>
115

>  <Name_of_compounds>
Zalcitabine

>  <Activity_Profiles>
0 0 0 0 0

> <INITIAL_ID>
2102

> <SUM_activity>
0

$$$$
2100
  MOE2007           2D

 40 43  0  0  1  0  0  0  0  0999 V2000
   -0.8300   -1.1650    0.0000 C   0  0  0  0  0  0  0  0  0  0  0  0
   -1.4440   -0.4070    0.0000 C   0  0  0  0  0  0  0  0  0  0  0  0
   -1.2190    0.3870    0.0000 C   0  0  0  0  0  0  0  0  0  0  0  0
   -1.7940    0.9780    0.0000 C   0  0  0  0  0  0  0  0  0  0  0  0
   -2.5940    0.7760    0.0000 C   0  0  0  0  0  0  0  0  0  0  0  0
   -2.8180   -0.0180    0.0000 C   0  0  0  0  0  0  0  0  0  0  0  0
   -2.2430   -0.6100    0.0000 C   0  0  0  0  0  0  0  0  0  0  0  0
   -3.1350   -0.6050    0.0000 O   0  0  0  0  0  0  0  0  0  0  0  0
   -0.4770    0.7820    0.0000 C   0  0  0  0  0  0  0  0  0  0  0  0
   -0.7740    1.5750    0.0000 O   0  0  0  0  0  0  0  0  0  0  0  0
   -0.0220    0.0540    0.0000 N   0  0  0  0  0  0  0  0  0  0  0  0
    0.1590   -0.7920    0.0000 C   0  0  3  0  0  0  0  0  0  0  0  0
   -0.6590   -0.6230    0.0000 C   0  0  0  0  0  0  0  0  0  0  0  0
   -1.3630   -1.1970    0.0000 S   0  0  0  0  0  0  0  0  0  0  0  0
   -2.1080   -1.4350    0.0000 C   0  0  0  0  0  0  0  0  0  0  0  0
   -1.9240   -2.2660    0.0000 C   0  0  0  0  0  0  0  0  0  0  0  0
   -2.4520   -2.9000    0.0000 C   0  0  0  0  0  0  0  0  0  0  0  0
   -3.2660   -2.7600    0.0000 C   0  0  0  0  0  0  0  0  0  0  0  0
   -3.5500   -1.9860    0.0000 C   0  0  0  0  0  0  0  0  0  0  0  0
   -3.0220   -1.3520    0.0000 C   0  0  0  0  0  0  0  0  0  0  0  0
    0.5230   -1.5770    0.0000 C   0  0  3  0  0  0  0  0  0  0  0  0
    1.2660   -1.1970    0.0000 C   0  0  0  0  0  0  0  0  0  0  0  0
    1.5310   -0.3910    0.0000 N   0  0  0  0  0  0  0  0  0  0  0  0
    0.9560    0.2000    0.0000 C   0  0  0  0  0  0  0  0  0  0  0  0
    1.1800    0.9940    0.0000 C   0  0  3  0  0  0  0  0  0  0  0  0
    0.6050    1.5850    0.0000 C   0  0  0  0  0  0  0  0  0  0  0  0
    0.8300    2.3790    0.0000 C   0  0  0  0  0  0  0  0  0  0  0  0
    1.6300    2.5820    0.0000 C   0  0  0  0  0  0  0  0  0  0  0  0
    2.2050    1.9900    0.0000 C   0  0  0  0  0  0  0  0  0  0  0  0
    1.9800    1.1960    0.0000 C   0  0  3  0  0  0  0  0  0  0  0  0
    2.5550    0.6050    0.0000 C   0  0  0  0  0  0  0  0  0  0  0  0
    2.3310   -0.1890    0.0000 C   0  0  3  0  0  0  0  0  0  0  0  0
    2.9320   -0.8020    0.0000 C   0  0  0  0  0  0  0  0  0  0  0  0
    2.7350   -1.6190    0.0000 O   0  0  0  0  0  0  0  0  0  0  0  0
    3.7810   -0.8470    0.0000 N   0  0  0  0  0  0  0  0  0  0  0  0
    4.5280   -1.2530    0.0000 C   0  0  0  0  0  0  0  0  0  0  0  0
    4.1400   -2.0050    0.0000 C   0  0  0  0  0  0  0  0  0  0  0  0
    5.0120   -0.5580    0.0000 C   0  0  0  0  0  0  0  0  0  0  0  0
    5.2100   -1.7580    0.0000 C   0  0  0  0  0  0  0  0  0  0  0  0
    0.5830   -2.4180    0.0000 O   0  0  0  0  0  0  0  0  0  0  0  0
  1  2  1  0  0  0  0
  2  3  1  0  0  0  0
  2  7  2  0  0  0  0
  3  4  2  0  0  0  0
  3  9  1  0  0  0  0
  4  5  1  0  0  0  0
  5  6  2  0  0  0  0
  6  7  1  0  0  0  0
  7  8  1  0  0  0  0
  9 10  2  0  0  0  0
  9 11  1  0  0  0  0
 11 12  1  0  0  0  0
 12 13  1  0  0  0  0
 12 21  1  0  0  0  0
 13 14  1  0  0  0  0
 14 15  1  0  0  0  0
 15 16  1  0  0  0  0
 15 20  2  0  0  0  0
 16 17  2  0  0  0  0
 17 18  1  0  0  0  0
 18 19  2  0  0  0  0
 19 20  1  0  0  0  0
 21 22  1  0  0  0  0
 21 40  1  0  0  0  0
 22 23  1  0  0  0  0
 23 24  1  0  0  0  0
 23 32  1  0  0  0  0
 24 25  1  0  0  0  0
 25 26  1  0  0  0  0
 25 30  1  0  0  0  0
 26 27  1  0  0  0  0
 27 28  1  0  0  0  0
 28 29  1  0  0  0  0
 29 30  1  0  0  0  0
 30 31  1  0  0  0  0
 31 32  1  0  0  0  0
 32 33  1  0  0  0  0
 33 34  2  0  0  0  0
 33 35  1  0  0  0  0
 35 36  1  0  0  0  0
 36 37  1  0  0  0  0
 36 38  1  0  0  0  0
 36 39  1  0  0  0  0
M  END
> <MOL_ID>
113

>  <Name_of_compounds>
Nelfinavir mesylate

>  <Activity_Profiles>
0 0 0 0 0

> <INITIAL_ID>
2100

> <SUM_activity>
0

$$$$
1268
  MOE2007           2D

 14 15  0  0  0  0  0  0  0  0999 V2000
   -0.5260    2.0120    0.0000 O   0  0  0  0  0  0  0  0  0  0  0  0
   -0.6970    1.2050    0.0000 S   0  0  0  0  0  0  0  0  0  0  0  0
    0.1100    1.0340    0.0000 C   0  0  0  0  0  0  0  0  0  0  0  0
    0.3640    0.2490    0.0000 C   0  0  0  0  0  0  0  0  0  0  0  0
   -0.1200   -0.4180    0.0000 N   0  0  0  0  0  0  0  0  0  0  0  0
    0.3640   -1.0860    0.0000 O   0  0  0  0  0  0  0  0  0  0  0  0
    1.1490   -0.8310    0.0000 C   0  0  0  0  0  0  0  0  0  0  0  0
    1.1490   -0.0060    0.0000 C   0  0  0  0  0  0  0  0  0  0  0  0
    1.8640    0.4070    0.0000 C   0  0  0  0  0  0  0  0  0  0  0  0
    2.5780   -0.0060    0.0000 C   0  0  0  0  0  0  0  0  0  0  0  0
    2.5780   -0.8310    0.0000 C   0  0  0  0  0  0  0  0  0  0  0  0
    1.8640   -1.2430    0.0000 C   0  0  0  0  0  0  0  0  0  0  0  0
   -1.5040    1.3770    0.0000 N   0  0  0  0  0  0  0  0  0  0  0  0
   -0.8690    0.3980    0.0000 O   0  0  0  0  0  0  0  0  0  0  0  0
  1  2  2  0  0  0  0
  2  3  1  0  0  0  0
  2 13  1  0  0  0  0
  2 14  2  0  0  0  0
  3  4  1  0  0  0  0
  4  5  2  0  0  0  0
  4  8  1  0  0  0  0
  5  6  1  0  0  0  0
  6  7  1  0  0  0  0
  7  8  1  0  0  0  0
  7 12  2  0  0  0  0
  8  9  2  0  0  0  0
  9 10  1  0  0  0  0
 10 11  2  0  0  0  0
 11 12  1  0  0  0  0
M  END
> <MOL_ID>
52

>  <Name_of_compounds>
Zonisamide

>  <Activity_Profiles>
0 0 0 0 0

> <INITIAL_ID>
1268

> <SUM_activity>
0

$$$$
686
  MOE2007           2D

 19 20  0  0  0  0  0  0  0  0999 V2000
   -4.1360   -1.8240    0.0000 C   0  0  0  0  0  0  0  0  0  0  0  0
   -3.4220   -1.4110    0.0000 C   0  0  0  0  0  0  0  0  0  0  0  0
   -2.7080   -1.8240    0.0000 C   0  0  0  0  0  0  0  0  0  0  0  0
   -2.7080   -2.6490    0.0000 C   0  0  0  0  0  0  0  0  0  0  0  0
   -3.4220   -3.0610    0.0000 C   0  0  0  0  0  0  0  0  0  0  0  0
   -4.1360   -2.6490    0.0000 C   0  0  0  0  0  0  0  0  0  0  0  0
   -1.9930   -3.0610    0.0000 C   0  0  0  0  0  0  0  0  0  0  0  0
   -1.9930   -3.8860    0.0000 C   0  0  0  0  0  0  0  0  0  0  0  0
   -1.2780   -4.2990    0.0000 C   0  0  0  0  0  0  0  0  0  0  0  0
   -1.2780   -5.1240    0.0000 C   0  0  0  0  0  0  0  0  0  0  0  0
   -1.9930   -5.5360    0.0000 C   0  0  0  0  0  0  0  0  0  0  0  0
   -2.7080   -5.1240    0.0000 C   0  0  0  0  0  0  0  0  0  0  0  0
   -2.7080   -4.2990    0.0000 C   0  0  0  0  0  0  0  0  0  0  0  0
   -1.2780   -2.6490    0.0000 S   0  0  0  0  0  0  0  0  0  0  0  0
   -1.2780   -1.8240    0.0000 O   0  0  0  0  0  0  0  0  0  0  0  0
   -0.5640   -3.0610    0.0000 C   0  0  0  0  0  0  0  0  0  0  0  0
    0.1500   -2.6490    0.0000 C   0  0  0  0  0  0  0  0  0  0  0  0
    0.1500   -1.8240    0.0000 O   0  0  0  0  0  0  0  0  0  0  0  0
    0.8650   -3.0610    0.0000 N   0  0  0  0  0  0  0  0  0  0  0  0
  1  2  1  0  0  0  0
  1  6  2  0  0  0  0
  2  3  2  0  0  0  0
  3  4  1  0  0  0  0
  4  5  2  0  0  0  0
  4  7  1  0  0  0  0
  5  6  1  0  0  0  0
  7  8  1  0  0  0  0
  7 14  1  0  0  0  0
  8  9  1  0  0  0  0
  8 13  2  0  0  0  0
  9 10  2  0  0  0  0
 10 11  1  0  0  0  0
 11 12  2  0  0  0  0
 12 13  1  0  0  0  0
 14 15  2  0  0  0  0
 14 16  1  0  0  0  0
 16 17  1  0  0  0  0
 17 18  2  0  0  0  0
 17 19  1  0  0  0  0
M  END
> <MOL_ID>
51

>  <Name_of_compounds>
Modafinil

>  <Activity_Profiles>
0 0 0 0 0

> <INITIAL_ID>
686

> <SUM_activity>
0

$$$$
2104
  MOE2007           2D

 19 20  0  0  1  0  0  0  0  0999 V2000
   -0.6260    5.8650    0.0000 C   0  0  0  0  0  0  0  0  0  0  0  0
   -1.3400    5.4520    0.0000 C   0  0  0  0  0  0  0  0  0  0  0  0
   -1.3400    4.6270    0.0000 C   0  0  0  0  0  0  0  0  0  0  0  0
   -2.0550    4.2150    0.0000 N   0  0  0  0  0  0  0  0  0  0  0  0
   -2.7690    4.6270    0.0000 C   0  0  0  0  0  0  0  0  0  0  0  0
   -3.4840    4.2150    0.0000 O   0  0  0  0  0  0  0  0  0  0  0  0
   -2.7690    5.4520    0.0000 N   0  0  0  0  0  0  0  0  0  0  0  0
   -2.0550    5.8650    0.0000 C   0  0  0  0  0  0  0  0  0  0  0  0
   -2.0550    6.6900    0.0000 O   0  0  0  0  0  0  0  0  0  0  0  0
   -2.0550    3.3900    0.0000 C   0  0  3  0  0  0  0  0  0  0  0  0
   -1.3880    2.9050    0.0000 C   0  0  0  0  0  0  0  0  0  0  0  0
   -1.6420    2.1200    0.0000 C   0  0  3  0  0  0  0  0  0  0  0  0
   -2.4680    2.1200    0.0000 C   0  0  3  0  0  0  0  0  0  0  0  0
   -2.7220    2.9050    0.0000 O   0  0  0  0  0  0  0  0  0  0  0  0
   -2.9520    1.4530    0.0000 C   0  0  0  0  0  0  0  0  0  0  0  0
   -3.7730    1.5390    0.0000 O   0  0  0  0  0  0  0  0  0  0  0  0
   -1.1580    1.4530    0.0000 N   0  0  0  0  0  0  0  0  0  0  0  0
   -1.4930    0.6990    0.0000 N   0  3  0  0  0  0  0  0  0  0  0  0
   -1.8290   -0.0540    0.0000 N   0  0  0  0  0  0  0  0  0  0  0  0
  1  2  1  0  0  0  0
  2  3  2  0  0  0  0
  2  8  1  0  0  0  0
  3  4  1  0  0  0  0
  4  5  1  0  0  0  0
  4 10  1  0  0  0  0
  5  6  2  0  0  0  0
  5  7  1  0  0  0  0
  7  8  1  0  0  0  0
  8  9  2  0  0  0  0
 10 11  1  0  0  0  0
 10 14  1  0  0  0  0
 11 12  1  0  0  0  0
 12 13  1  0  0  0  0
 12 17  1  0  0  0  0
 13 14  1  0  0  0  0
 13 15  1  0  0  0  0
 15 16  1  0  0  0  0
 17 18  2  0  0  0  0
 18 19  2  0  0  0  0
M  CHG  1  18   1
M  END
> <MOL_ID>
117

>  <Name_of_compounds>
Zidovudine

>  <Activity_Profiles>
0 0 0 0 0

> <INITIAL_ID>
2104

> <SUM_activity>
0

$$$$
2096
  MOE2007           2D

 45 49  0  0  1  0  0  0  0  0999 V2000
   -0.3430   -2.1710    0.0000 C   0  0  0  0  0  0  0  0  0  0  0  0
   -1.1680   -2.1710    0.0000 C   0  0  0  0  0  0  0  0  0  0  0  0
   -1.1680   -2.9960    0.0000 C   0  0  0  0  0  0  0  0  0  0  0  0
   -1.9930   -2.1710    0.0000 C   0  0  0  0  0  0  0  0  0  0  0  0
   -1.1680   -1.3460    0.0000 N   0  0  0  0  0  0  0  0  0  0  0  0
   -1.8820   -0.9340    0.0000 C   0  0  0  0  0  0  0  0  0  0  0  0
   -2.5960   -1.3460    0.0000 O   0  0  0  0  0  0  0  0  0  0  0  0
   -1.8820   -0.1090    0.0000 C   0  0  3  0  0  0  0  0  0  0  0  0
   -2.5960    0.3040    0.0000 C   0  0  0  0  0  0  0  0  0  0  0  0
   -2.5960    1.1290    0.0000 N   0  0  0  0  0  0  0  0  0  0  0  0
   -1.8820    1.5410    0.0000 C   0  0  0  0  0  0  0  0  0  0  0  0
   -1.1680    1.1290    0.0000 C   0  0  0  0  0  0  0  0  0  0  0  0
   -1.1680    0.3040    0.0000 N   0  0  0  0  0  0  0  0  0  0  0  0
   -0.4530   -0.1090    0.0000 C   0  0  0  0  0  0  0  0  0  0  0  0
    0.2610    0.3040    0.0000 C   0  0  3  0  0  0  0  0  0  0  0  0
    0.9760   -0.1090    0.0000 C   0  0  0  0  0  0  0  0  0  0  0  0
    1.6900    0.3040    0.0000 C   0  0  3  0  0  0  0  0  0  0  0  0
    1.6900    1.1290    0.0000 C   0  0  0  0  0  0  0  0  0  0  0  0
    2.4050    1.5410    0.0000 C   0  0  0  0  0  0  0  0  0  0  0  0
    2.4050    2.3660    0.0000 C   0  0  0  0  0  0  0  0  0  0  0  0
    3.1190    2.7790    0.0000 C   0  0  0  0  0  0  0  0  0  0  0  0
    3.8340    2.3660    0.0000 C   0  0  0  0  0  0  0  0  0  0  0  0
    3.8340    1.5410    0.0000 C   0  0  0  0  0  0  0  0  0  0  0  0
    3.1190    1.1290    0.0000 C   0  0  0  0  0  0  0  0  0  0  0  0
    2.4050   -0.1090    0.0000 C   0  0  0  0  0  0  0  0  0  0  0  0
    2.4050   -0.9340    0.0000 O   0  0  0  0  0  0  0  0  0  0  0  0
    3.1190    0.3040    0.0000 N   0  0  0  0  0  0  0  0  0  0  0  0
    3.8340   -0.1090    0.0000 C   0  0  3  0  0  0  0  0  0  0  0  0
    4.5870    0.2270    0.0000 C   0  0  3  0  0  0  0  0  0  0  0  0
    5.1390   -0.3860    0.0000 C   0  0  0  0  0  0  0  0  0  0  0  0
    4.7270   -1.1010    0.0000 C   0  0  0  0  0  0  0  0  0  0  0  0
    4.9820   -1.8850    0.0000 C   0  0  0  0  0  0  0  0  0  0  0  0
    4.4300   -2.4980    0.0000 C   0  0  0  0  0  0  0  0  0  0  0  0
    3.6230   -2.3270    0.0000 C   0  0  0  0  0  0  0  0  0  0  0  0
    3.3680   -1.5420    0.0000 C   0  0  0  0  0  0  0  0  0  0  0  0
    3.9200   -0.9290    0.0000 C   0  0  0  0  0  0  0  0  0  0  0  0
    4.7590    1.0340    0.0000 O   0  0  0  0  0  0  0  0  0  0  0  0
    0.2610    1.1290    0.0000 O   0  0  0  0  0  0  0  0  0  0  0  0
   -3.3110    1.5410    0.0000 C   0  0  0  0  0  0  0  0  0  0  0  0
   -3.3110    2.3660    0.0000 C   0  0  0  0  0  0  0  0  0  0  0  0
   -4.0260    2.7790    0.0000 C   0  0  0  0  0  0  0  0  0  0  0  0
   -4.0260    3.6040    0.0000 N   0  0  0  0  0  0  0  0  0  0  0  0
   -3.3110    4.0160    0.0000 C   0  0  0  0  0  0  0  0  0  0  0  0
   -2.5960    3.6040    0.0000 C   0  0  0  0  0  0  0  0  0  0  0  0
   -2.5960    2.7790    0.0000 C   0  0  0  0  0  0  0  0  0  0  0  0
  1  2  1  0  0  0  0
  2  3  1  0  0  0  0
  2  4  1  0  0  0  0
  2  5  1  0  0  0  0
  5  6  1  0  0  0  0
  6  7  2  0  0  0  0
  6  8  1  0  0  0  0
  8  9  1  0  0  0  0
  8 13  1  0  0  0  0
  9 10  1  0  0  0  0
 10 11  1  0  0  0  0
 10 39  1  0  0  0  0
 11 12  1  0  0  0  0
 12 13  1  0  0  0  0
 13 14  1  0  0  0  0
 14 15  1  0  0  0  0
 15 16  1  0  0  0  0
 15 38  1  0  0  0  0
 16 17  1  0  0  0  0
 17 18  1  0  0  0  0
 17 25  1  0  0  0  0
 18 19  1  0  0  0  0
 19 20  1  0  0  0  0
 19 24  2  0  0  0  0
 20 21  2  0  0  0  0
 21 22  1  0  0  0  0
 22 23  2  0  0  0  0
 23 24  1  0  0  0  0
 25 26  2  0  0  0  0
 25 27  1  0  0  0  0
 27 28  1  0  0  0  0
 28 29  1  0  0  0  0
 28 36  1  0  0  0  0
 29 30  1  0  0  0  0
 29 37  1  0  0  0  0
 30 31  1  0  0  0  0
 31 32  1  0  0  0  0
 31 36  2  0  0  0  0
 32 33  2  0  0  0  0
 33 34  1  0  0  0  0
 34 35  2  0  0  0  0
 35 36  1  0  0  0  0
 39 40  1  0  0  0  0
 40 41  1  0  0  0  0
 40 45  2  0  0  0  0
 41 42  2  0  0  0  0
 42 43  1  0  0  0  0
 43 44  2  0  0  0  0
 44 45  1  0  0  0  0
M  END
> <MOL_ID>
109

>  <Name_of_compounds>
Indinavir sulphate

>  <Activity_Profiles>
0 0 0 0 0

> <INITIAL_ID>
2096

> <SUM_activity>
0

$$$$
2097
  MOE2007           2D

 21 23  0  0  1  0  0  0  0  0999 V2000
   -0.2340   -0.2340    0.0000 Cl  0  0  0  0  0  0  0  0  0  0  0  0
    0.4800   -0.6470    0.0000 C   0  0  0  0  0  0  0  0  0  0  0  0
    0.4800   -1.4720    0.0000 C   0  0  0  0  0  0  0  0  0  0  0  0
    1.1940   -1.8840    0.0000 C   0  0  0  0  0  0  0  0  0  0  0  0
    1.9090   -1.4720    0.0000 C   0  0  0  0  0  0  0  0  0  0  0  0
    1.9090   -0.6470    0.0000 C   0  0  0  0  0  0  0  0  0  0  0  0
    2.6230   -0.2340    0.0000 C   0  0  1  0  0  0  0  0  0  0  0  0
    2.0930    0.3980    0.0000 C   0  0  0  0  0  0  0  0  0  0  0  0
    1.5630    1.0300    0.0000 C   0  0  0  0  0  0  0  0  0  0  0  0
    1.0320    1.6620    0.0000 C   0  0  0  0  0  0  0  0  0  0  0  0
    0.2570    1.9440    0.0000 C   0  0  0  0  0  0  0  0  0  0  0  0
    0.8890    2.4740    0.0000 C   0  0  0  0  0  0  0  0  0  0  0  0
    3.1540    0.3980    0.0000 C   0  0  0  0  0  0  0  0  0  0  0  0
    3.7860   -0.1330    0.0000 F   0  0  0  0  0  0  0  0  0  0  0  0
    3.6840    1.0300    0.0000 F   0  0  0  0  0  0  0  0  0  0  0  0
    2.5220    0.9280    0.0000 F   0  0  0  0  0  0  0  0  0  0  0  0
    3.3380   -0.6470    0.0000 O   0  0  0  0  0  0  0  0  0  0  0  0
    3.3380   -1.4720    0.0000 C   0  0  0  0  0  0  0  0  0  0  0  0
    2.6230   -1.8840    0.0000 N   0  0  0  0  0  0  0  0  0  0  0  0
    4.0520   -1.8840    0.0000 O   0  0  0  0  0  0  0  0  0  0  0  0
    1.1940   -0.2340    0.0000 C   0  0  0  0  0  0  0  0  0  0  0  0
  1  2  1  0  0  0  0
  2  3  1  0  0  0  0
  2 21  2  0  0  0  0
  3  4  2  0  0  0  0
  4  5  1  0  0  0  0
  5  6  2  0  0  0  0
  5 19  1  0  0  0  0
  6  7  1  0  0  0  0
  6 21  1  0  0  0  0
  7  8  1  6  0  0  0
  7 13  1  1  0  0  0
  7 17  1  0  0  0  0
  8  9  3  0  0  0  0
  9 10  1  0  0  0  0
 10 11  1  0  0  0  0
 10 12  1  0  0  0  0
 11 12  1  0  0  0  0
 13 14  1  0  0  0  0
 13 15  1  0  0  0  0
 13 16  1  0  0  0  0
 17 18  1  0  0  0  0
 18 19  1  0  0  0  0
 18 20  2  0  0  0  0
M  END
> <MOL_ID>
110

>  <Name_of_compounds>
Efavirenz

>  <Activity_Profiles>
0 0 0 0 0

> <INITIAL_ID>
2097

> <SUM_activity>
0

$$$$
1311
  MOE2007           2D

 11 12  0  0  1  0  0  0  0  0999 V2000
    1.0400   -1.0400    0.0000 C   0  0  0  0  0  0  0  0  0  0  0  0
    0.7850   -0.2550    0.0000 C   0  0  3  0  0  0  0  0  0  0  0  0
    0.0000    0.0000    0.0000 C   0  0  3  0  0  0  0  0  0  0  0  0
   -0.7140    0.4120    0.0000 C   0  0  0  0  0  0  0  0  0  0  0  0
    0.0000    0.8250    0.0000 C   0  0  3  0  0  0  0  0  0  0  0  0
    0.7850    1.0800    0.0000 C   0  0  0  0  0  0  0  0  0  0  0  0
    1.2700    0.4120    0.0000 C   0  0  0  0  0  0  0  0  0  0  0  0
    2.0940    0.4120    0.0000 O   0  0  0  0  0  0  0  0  0  0  0  0
   -0.3360    1.5790    0.0000 C   0  0  0  0  0  0  0  0  0  0  0  0
    0.1490    2.2460    0.0000 C   0  0  0  0  0  0  0  0  0  0  0  0
   -1.1560    1.6650    0.0000 C   0  0  0  0  0  0  0  0  0  0  0  0
  1  2  1  0  0  0  0
  2  3  1  0  0  0  0
  2  7  1  0  0  0  0
  3  4  1  0  0  0  0
  3  5  1  0  0  0  0
  4  5  1  0  0  0  0
  5  6  1  0  0  0  0
  5  9  1  0  0  0  0
  6  7  1  0  0  0  0
  7  8  2  0  0  0  0
  9 10  1  0  0  0  0
  9 11  1  0  0  0  0
M  END
> <MOL_ID>
63

>  <Name_of_compounds>
Thujone

>  <Activity_Profiles>
0 0 0 0 0

> <INITIAL_ID>
1311

> <SUM_activity>
0

$$$$
2099
  MOE2007           2D

 50 53  0  0  1  0  0  0  0  0999 V2000
   -4.3550    7.1210    0.0000 C   0  0  0  0  0  0  0  0  0  0  0  0
   -3.8700    7.7880    0.0000 C   0  0  0  0  0  0  0  0  0  0  0  0
   -4.2060    8.5420    0.0000 C   0  0  0  0  0  0  0  0  0  0  0  0
   -3.0500    7.7020    0.0000 C   0  0  0  0  0  0  0  0  0  0  0  0
   -2.4980    8.3150    0.0000 N   0  0  0  0  0  0  0  0  0  0  0  0
   -1.7440    7.9800    0.0000 C   0  0  0  0  0  0  0  0  0  0  0  0
   -1.8300    7.1590    0.0000 C   0  0  0  0  0  0  0  0  0  0  0  0
   -2.6370    6.9880    0.0000 S   0  0  0  0  0  0  0  0  0  0  0  0
   -1.0300    8.3920    0.0000 C   0  0  0  0  0  0  0  0  0  0  0  0
   -0.3150    7.9800    0.0000 N   0  0  0  0  0  0  0  0  0  0  0  0
   -0.3150    7.1550    0.0000 C   0  0  0  0  0  0  0  0  0  0  0  0
    0.4000    8.3920    0.0000 C   0  0  0  0  0  0  0  0  0  0  0  0
    0.4000    9.2170    0.0000 O   0  0  0  0  0  0  0  0  0  0  0  0
    1.1140    7.9800    0.0000 N   0  0  0  0  0  0  0  0  0  0  0  0
    1.8280    8.3920    0.0000 C   0  0  3  0  0  0  0  0  0  0  0  0
    1.8280    9.2170    0.0000 C   0  0  0  0  0  0  0  0  0  0  0  0
    2.5430    9.6300    0.0000 C   0  0  0  0  0  0  0  0  0  0  0  0
    1.1140    9.6300    0.0000 C   0  0  0  0  0  0  0  0  0  0  0  0
    2.5430    7.9800    0.0000 C   0  0  0  0  0  0  0  0  0  0  0  0
    2.5430    7.1550    0.0000 O   0  0  0  0  0  0  0  0  0  0  0  0
    3.2570    8.3920    0.0000 N   0  0  0  0  0  0  0  0  0  0  0  0
    3.9720    7.9800    0.0000 C   0  0  3  0  0  0  0  0  0  0  0  0
    3.9720    7.1550    0.0000 C   0  0  0  0  0  0  0  0  0  0  0  0
    4.6860    6.7420    0.0000 C   0  0  0  0  0  0  0  0  0  0  0  0
    5.4010    7.1550    0.0000 C   0  0  0  0  0  0  0  0  0  0  0  0
    6.1150    6.7420    0.0000 C   0  0  0  0  0  0  0  0  0  0  0  0
    6.1150    5.9170    0.0000 C   0  0  0  0  0  0  0  0  0  0  0  0
    5.4010    5.5050    0.0000 C   0  0  0  0  0  0  0  0  0  0  0  0
    4.6860    5.9170    0.0000 C   0  0  0  0  0  0  0  0  0  0  0  0
    4.6860    8.3920    0.0000 C   0  0  0  0  0  0  0  0  0  0  0  0
    5.4010    7.9800    0.0000 C   0  0  3  0  0  0  0  0  0  0  0  0
    6.1150    8.3920    0.0000 C   0  0  3  0  0  0  0  0  0  0  0  0
    6.1150    9.2170    0.0000 C   0  0  0  0  0  0  0  0  0  0  0  0
    5.4010    9.6300    0.0000 C   0  0  0  0  0  0  0  0  0  0  0  0
    4.6860    9.2170    0.0000 C   0  0  0  0  0  0  0  0  0  0  0  0
    3.9720    9.6300    0.0000 C   0  0  0  0  0  0  0  0  0  0  0  0
    3.9720   10.4550    0.0000 C   0  0  0  0  0  0  0  0  0  0  0  0
    4.6860   10.8670    0.0000 C   0  0  0  0  0  0  0  0  0  0  0  0
    5.4010   10.4550    0.0000 C   0  0  0  0  0  0  0  0  0  0  0  0
    6.8300    7.9800    0.0000 N   0  0  0  0  0  0  0  0  0  0  0  0
    7.5440    8.3920    0.0000 C   0  0  0  0  0  0  0  0  0  0  0  0
    7.5440    9.2170    0.0000 O   0  0  0  0  0  0  0  0  0  0  0  0
    8.2590    7.9800    0.0000 O   0  0  0  0  0  0  0  0  0  0  0  0
    8.9730    8.3920    0.0000 C   0  0  0  0  0  0  0  0  0  0  0  0
    9.6880    7.9800    0.0000 C   0  0  0  0  0  0  0  0  0  0  0  0
    9.7740    7.1590    0.0000 C   0  0  0  0  0  0  0  0  0  0  0  0
   10.5810    6.9880    0.0000 N   0  0  0  0  0  0  0  0  0  0  0  0
   10.9930    7.7020    0.0000 C   0  0  0  0  0  0  0  0  0  0  0  0
   10.4410    8.3150    0.0000 S   0  0  0  0  0  0  0  0  0  0  0  0
    5.8860    7.3120    0.0000 O   0  0  0  0  0  0  0  0  0  0  0  0
  1  2  1  0  0  0  0
  2  3  1  0  0  0  0
  2  4  1  0  0  0  0
  4  5  2  0  0  0  0
  4  8  1  0  0  0  0
  5  6  1  0  0  0  0
  6  7  2  0  0  0  0
  6  9  1  0  0  0  0
  7  8  1  0  0  0  0
  9 10  1  0  0  0  0
 10 11  1  0  0  0  0
 10 12  1  0  0  0  0
 12 13  2  0  0  0  0
 12 14  1  0  0  0  0
 14 15  1  0  0  0  0
 15 16  1  0  0  0  0
 15 19  1  0  0  0  0
 16 17  1  0  0  0  0
 16 18  1  0  0  0  0
 19 20  2  0  0  0  0
 19 21  1  0  0  0  0
 21 22  1  0  0  0  0
 22 23  1  0  0  0  0
 22 30  1  0  0  0  0
 23 24  1  0  0  0  0
 24 25  1  0  0  0  0
 24 29  2  0  0  0  0
 25 26  2  0  0  0  0
 26 27  1  0  0  0  0
 27 28  2  0  0  0  0
 28 29  1  0  0  0  0
 30 31  1  0  0  0  0
 31 32  1  0  0  0  0
 31 50  1  0  0  0  0
 32 33  1  0  0  0  0
 32 40  1  0  0  0  0
 33 34  1  0  0  0  0
 34 35  1  0  0  0  0
 34 39  2  0  0  0  0
 35 36  2  0  0  0  0
 36 37  1  0  0  0  0
 37 38  2  0  0  0  0
 38 39  1  0  0  0  0
 40 41  1  0  0  0  0
 41 42  2  0  0  0  0
 41 43  1  0  0  0  0
 43 44  1  0  0  0  0
 44 45  1  0  0  0  0
 45 46  2  0  0  0  0
 45 49  1  0  0  0  0
 46 47  1  0  0  0  0
 47 48  2  0  0  0  0
 48 49  1  0  0  0  0
M  END
> <MOL_ID>
112

>  <Name_of_compounds>
Ritonavir

>  <Activity_Profiles>
0 0 0 0 0

> <INITIAL_ID>
2099

> <SUM_activity>
0

$$$$
2098
  MOE2007           2D

 16 17  0  0  1  0  0  0  0  0999 V2000
   -1.2440    6.5390    0.0000 C   0  0  0  0  0  0  0  0  0  0  0  0
   -1.9590    6.1270    0.0000 C   0  0  0  0  0  0  0  0  0  0  0  0
   -1.9590    5.3020    0.0000 C   0  0  0  0  0  0  0  0  0  0  0  0
   -2.6730    4.8890    0.0000 N   0  0  0  0  0  0  0  0  0  0  0  0
   -3.3880    5.3020    0.0000 C   0  0  0  0  0  0  0  0  0  0  0  0
   -4.1020    4.8890    0.0000 O   0  0  0  0  0  0  0  0  0  0  0  0
   -3.3880    6.1270    0.0000 N   0  0  0  0  0  0  0  0  0  0  0  0
   -2.6730    6.5390    0.0000 C   0  0  0  0  0  0  0  0  0  0  0  0
   -2.6730    7.3640    0.0000 O   0  0  0  0  0  0  0  0  0  0  0  0
   -2.6730    4.0640    0.0000 C   0  0  3  0  0  0  0  0  0  0  0  0
   -2.0060    3.5790    0.0000 C   0  0  0  0  0  0  0  0  0  0  0  0
   -2.2610    2.7950    0.0000 C   0  0  0  0  0  0  0  0  0  0  0  0
   -3.0860    2.7950    0.0000 C   0  0  3  0  0  0  0  0  0  0  0  0
   -3.3410    3.5790    0.0000 O   0  0  0  0  0  0  0  0  0  0  0  0
   -3.5710    2.1270    0.0000 C   0  0  0  0  0  0  0  0  0  0  0  0
   -4.3910    2.2130    0.0000 O   0  0  0  0  0  0  0  0  0  0  0  0
  1  2  1  0  0  0  0
  2  3  2  0  0  0  0
  2  8  1  0  0  0  0
  3  4  1  0  0  0  0
  4  5  1  0  0  0  0
  4 10  1  0  0  0  0
  5  6  2  0  0  0  0
  5  7  1  0  0  0  0
  7  8  1  0  0  0  0
  8  9  2  0  0  0  0
 10 11  1  0  0  0  0
 10 14  1  0  0  0  0
 11 12  2  0  0  0  0
 12 13  1  0  0  0  0
 13 14  1  0  0  0  0
 13 15  1  0  0  0  0
 15 16  1  0  0  0  0
M  END
> <MOL_ID>
111

>  <Name_of_compounds>
Stavudine

>  <Activity_Profiles>
0 0 0 0 0

> <INITIAL_ID>
2098

> <SUM_activity>
0

$$$$
1789
  MOE2007           2D

 24 26  0  0  0  0  0  0  0  0999 V2000
    3.2150   -0.7220    0.0000 C   0  0  0  0  0  0  0  0  0  0  0  0
    3.2150   -1.5470    0.0000 C   0  0  0  0  0  0  0  0  0  0  0  0
    3.9300   -1.9590    0.0000 N   0  0  0  0  0  0  0  0  0  0  0  0
    3.9300   -2.7840    0.0000 C   0  0  0  0  0  0  0  0  0  0  0  0
    3.2150   -3.1970    0.0000 C   0  0  0  0  0  0  0  0  0  0  0  0
    2.5010   -2.7840    0.0000 C   0  0  0  0  0  0  0  0  0  0  0  0
    2.5010   -1.9590    0.0000 C   0  0  0  0  0  0  0  0  0  0  0  0
    3.2150   -4.0220    0.0000 C   0  0  0  0  0  0  0  0  0  0  0  0
    3.9300   -4.4340    0.0000 N   0  0  0  0  0  0  0  0  0  0  0  0
    3.9300   -5.2590    0.0000 C   0  0  0  0  0  0  0  0  0  0  0  0
    3.2150   -5.6720    0.0000 C   0  0  0  0  0  0  0  0  0  0  0  0
    2.5010   -5.2590    0.0000 C   0  0  0  0  0  0  0  0  0  0  0  0
    2.5010   -4.4340    0.0000 C   0  0  0  0  0  0  0  0  0  0  0  0
    1.7860   -4.0220    0.0000 C   0  0  0  0  0  0  0  0  0  0  0  0
    1.0720   -4.4340    0.0000 C   0  0  0  0  0  0  0  0  0  0  0  0
    0.3570   -4.0220    0.0000 C   0  0  0  0  0  0  0  0  0  0  0  0
    0.3570   -3.1970    0.0000 C   0  0  0  0  0  0  0  0  0  0  0  0
    1.0720   -2.7840    0.0000 C   0  0  0  0  0  0  0  0  0  0  0  0
    1.7860   -3.1970    0.0000 C   0  0  0  0  0  0  0  0  0  0  0  0
   -0.3570   -2.7840    0.0000 S   0  0  0  0  0  0  0  0  0  0  0  0
    0.0550   -2.0700    0.0000 O   0  0  0  0  0  0  0  0  0  0  0  0
   -1.0720   -2.3720    0.0000 O   0  0  0  0  0  0  0  0  0  0  0  0
   -0.7700   -3.4990    0.0000 C   0  0  0  0  0  0  0  0  0  0  0  0
    3.2150   -6.4970    0.0000 Cl  0  0  0  0  0  0  0  0  0  0  0  0
  1  2  1  0  0  0  0
  2  3  1  0  0  0  0
  2  7  2  0  0  0  0
  3  4  2  0  0  0  0
  4  5  1  0  0  0  0
  5  6  2  0  0  0  0
  5  8  1  0  0  0  0
  6  7  1  0  0  0  0
  8  9  1  0  0  0  0
  8 13  2  0  0  0  0
  9 10  2  0  0  0  0
 10 11  1  0  0  0  0
 11 12  2  0  0  0  0
 11 24  1  0  0  0  0
 12 13  1  0  0  0  0
 13 14  1  0  0  0  0
 14 15  1  0  0  0  0
 14 19  2  0  0  0  0
 15 16  2  0  0  0  0
 16 17  1  0  0  0  0
 17 18  2  0  0  0  0
 17 20  1  0  0  0  0
 18 19  1  0  0  0  0
 20 21  2  0  0  0  0
 20 22  2  0  0  0  0
 20 23  1  0  0  0  0
M  END
> <MOL_ID>
97

>  <Name_of_compounds>
ETORICOXIB

>  <Activity_Profiles>
0 0 0 0 0

> <INITIAL_ID>
1789

> <SUM_activity>
0

$$$$
1788
  MOE2007           2D

 26 28  0  0  0  0  0  0  0  0999 V2000
   -0.7660    1.7220    0.0000 C   0  0  0  0  0  0  0  0  0  0  0  0
   -0.7660    0.8960    0.0000 C   0  0  0  0  0  0  0  0  0  0  0  0
   -0.0520    0.4840    0.0000 C   0  0  0  0  0  0  0  0  0  0  0  0
   -0.0520   -0.3410    0.0000 C   0  0  0  0  0  0  0  0  0  0  0  0
   -0.7660   -0.7540    0.0000 C   0  0  0  0  0  0  0  0  0  0  0  0
   -1.4810   -0.3410    0.0000 C   0  0  0  0  0  0  0  0  0  0  0  0
   -1.4810    0.4840    0.0000 C   0  0  0  0  0  0  0  0  0  0  0  0
   -0.7660   -1.5780    0.0000 C   0  0  0  0  0  0  0  0  0  0  0  0
   -0.0990   -2.0630    0.0000 C   0  0  0  0  0  0  0  0  0  0  0  0
   -0.3540   -2.8480    0.0000 C   0  0  0  0  0  0  0  0  0  0  0  0
   -1.1790   -2.8480    0.0000 N   0  0  0  0  0  0  0  0  0  0  0  0
   -1.4340   -2.0630    0.0000 N   0  0  0  0  0  0  0  0  0  0  0  0
   -2.2190   -1.8080    0.0000 C   0  0  0  0  0  0  0  0  0  0  0  0
   -2.8320   -2.3600    0.0000 C   0  0  0  0  0  0  0  0  0  0  0  0
   -3.6160   -2.1060    0.0000 C   0  0  0  0  0  0  0  0  0  0  0  0
   -3.7880   -1.2990    0.0000 C   0  0  0  0  0  0  0  0  0  0  0  0
   -3.1750   -0.7470    0.0000 C   0  0  0  0  0  0  0  0  0  0  0  0
   -2.3900   -1.0020    0.0000 C   0  0  0  0  0  0  0  0  0  0  0  0
   -4.5720   -1.0440    0.0000 S   0  0  0  0  0  0  0  0  0  0  0  0
   -4.3180   -0.2590    0.0000 O   0  0  0  0  0  0  0  0  0  0  0  0
   -5.3570   -0.7890    0.0000 O   0  0  0  0  0  0  0  0  0  0  0  0
   -4.8270   -1.8280    0.0000 N   0  0  0  0  0  0  0  0  0  0  0  0
    0.1310   -3.5160    0.0000 C   0  0  0  0  0  0  0  0  0  0  0  0
   -0.5360   -4.0000    0.0000 F   0  0  0  0  0  0  0  0  0  0  0  0
    0.6160   -4.1830    0.0000 F   0  0  0  0  0  0  0  0  0  0  0  0
    0.7980   -3.0300    0.0000 F   0  0  0  0  0  0  0  0  0  0  0  0
  1  2  1  0  0  0  0
  2  3  1  0  0  0  0
  2  7  2  0  0  0  0
  3  4  2  0  0  0  0
  4  5  1  0  0  0  0
  5  6  2  0  0  0  0
  5  8  1  0  0  0  0
  6  7  1  0  0  0  0
  8  9  2  0  0  0  0
  8 12  1  0  0  0  0
  9 10  1  0  0  0  0
 10 11  2  0  0  0  0
 10 23  1  0  0  0  0
 11 12  1  0  0  0  0
 12 13  1  0  0  0  0
 13 14  1  0  0  0  0
 13 18  2  0  0  0  0
 14 15  2  0  0  0  0
 15 16  1  0  0  0  0
 16 17  2  0  0  0  0
 16 19  1  0  0  0  0
 17 18  1  0  0  0  0
 19 20  2  0  0  0  0
 19 21  2  0  0  0  0
 19 22  1  0  0  0  0
 23 24  1  0  0  0  0
 23 25  1  0  0  0  0
 23 26  1  0  0  0  0
M  END
> <MOL_ID>
96

>  <Name_of_compounds>
CELECOXIB

>  <Activity_Profiles>
0 0 0 0 0

> <INITIAL_ID>
1788

> <SUM_activity>
0

$$$$
1790
  MOE2007           2D

 26 28  0  0  0  0  0  0  0  0999 V2000
    9.5050   -0.0500    0.0000 C   0  0  0  0  0  0  0  0  0  0  0  0
   10.2190    0.3620    0.0000 C   0  0  0  0  0  0  0  0  0  0  0  0
   10.9340   -0.0500    0.0000 C   0  0  0  0  0  0  0  0  0  0  0  0
   10.9340   -0.8750    0.0000 O   0  0  0  0  0  0  0  0  0  0  0  0
   11.6480    0.3620    0.0000 N   0  0  0  0  0  0  0  0  0  0  0  0
   12.3620   -0.0500    0.0000 S   0  0  0  0  0  0  0  0  0  0  0  0
   11.9500   -0.7650    0.0000 O   0  0  0  0  0  0  0  0  0  0  0  0
   12.7750    0.6640    0.0000 O   0  0  0  0  0  0  0  0  0  0  0  0
   13.0770   -0.4630    0.0000 C   0  0  0  0  0  0  0  0  0  0  0  0
   13.7920   -0.0500    0.0000 C   0  0  0  0  0  0  0  0  0  0  0  0
   14.5060   -0.4630    0.0000 C   0  0  0  0  0  0  0  0  0  0  0  0
   14.5060   -1.2880    0.0000 C   0  0  0  0  0  0  0  0  0  0  0  0
   13.7920   -1.7000    0.0000 C   0  0  0  0  0  0  0  0  0  0  0  0
   13.0770   -1.2880    0.0000 C   0  0  0  0  0  0  0  0  0  0  0  0
   15.2200   -1.7000    0.0000 C   0  0  0  0  0  0  0  0  0  0  0  0
   15.9740   -1.3650    0.0000 C   0  0  0  0  0  0  0  0  0  0  0  0
   16.5260   -1.9780    0.0000 O   0  0  0  0  0  0  0  0  0  0  0  0
   16.1140   -2.6920    0.0000 N   0  0  0  0  0  0  0  0  0  0  0  0
   15.3070   -2.5210    0.0000 C   0  0  0  0  0  0  0  0  0  0  0  0
   14.6940   -3.0730    0.0000 C   0  0  0  0  0  0  0  0  0  0  0  0
   14.8650   -3.8800    0.0000 C   0  0  0  0  0  0  0  0  0  0  0  0
   14.2520   -4.4320    0.0000 C   0  0  0  0  0  0  0  0  0  0  0  0
   13.4670   -4.1770    0.0000 C   0  0  0  0  0  0  0  0  0  0  0  0
   13.2960   -3.3700    0.0000 C   0  0  0  0  0  0  0  0  0  0  0  0
   13.9090   -2.8180    0.0000 C   0  0  0  0  0  0  0  0  0  0  0  0
   16.1460   -0.5580    0.0000 C   0  0  0  0  0  0  0  0  0  0  0  0
  1  2  1  0  0  0  0
  2  3  1  0  0  0  0
  3  4  2  0  0  0  0
  3  5  1  0  0  0  0
  5  6  1  0  0  0  0
  6  7  2  0  0  0  0
  6  8  2  0  0  0  0
  6  9  1  0  0  0  0
  9 10  1  0  0  0  0
  9 14  2  0  0  0  0
 10 11  2  0  0  0  0
 11 12  1  0  0  0  0
 12 13  2  0  0  0  0
 12 15  1  0  0  0  0
 13 14  1  0  0  0  0
 15 16  2  0  0  0  0
 15 19  1  0  0  0  0
 16 17  1  0  0  0  0
 16 26  1  0  0  0  0
 17 18  1  0  0  0  0
 18 19  2  0  0  0  0
 19 20  1  0  0  0  0
 20 21  1  0  0  0  0
 20 25  2  0  0  0  0
 21 22  2  0  0  0  0
 22 23  1  0  0  0  0
 23 24  2  0  0  0  0
 24 25  1  0  0  0  0
M  END
> <MOL_ID>
98

>  <Name_of_compounds>
PARECOXIB

>  <Activity_Profiles>
0 0 0 0 0

> <INITIAL_ID>
1790

> <SUM_activity>
0

$$$$
1786
  MOE2007           2D

 23 25  0  0  0  0  0  0  0  0999 V2000
   -3.7410    3.0380    0.0000 C   0  0  0  0  0  0  0  0  0  0  0  0
   -3.4050    2.2840    0.0000 C   0  0  0  0  0  0  0  0  0  0  0  0
   -3.8180    1.5700    0.0000 C   0  0  0  0  0  0  0  0  0  0  0  0
   -3.2660    0.9570    0.0000 N   0  0  0  0  0  0  0  0  0  0  0  0
   -2.5120    1.2920    0.0000 C   0  0  0  0  0  0  0  0  0  0  0  0
   -2.5980    2.1130    0.0000 S   0  0  0  0  0  0  0  0  0  0  0  0
   -1.7980    0.8800    0.0000 N   0  0  0  0  0  0  0  0  0  0  0  0
   -1.0830    1.2920    0.0000 C   0  0  0  0  0  0  0  0  0  0  0  0
   -0.3690    0.8800    0.0000 C   0  0  0  0  0  0  0  0  0  0  0  0
    0.3460    1.2920    0.0000 C   0  0  0  0  0  0  0  0  0  0  0  0
    0.3460    2.1170    0.0000 O   0  0  0  0  0  0  0  0  0  0  0  0
    1.0600    0.8800    0.0000 C   0  0  0  0  0  0  0  0  0  0  0  0
    1.7750    1.2920    0.0000 C   0  0  0  0  0  0  0  0  0  0  0  0
    2.4890    0.8800    0.0000 C   0  0  0  0  0  0  0  0  0  0  0  0
    2.4890    0.0550    0.0000 C   0  0  0  0  0  0  0  0  0  0  0  0
    1.7750   -0.3580    0.0000 C   0  0  0  0  0  0  0  0  0  0  0  0
    1.0600    0.0550    0.0000 C   0  0  0  0  0  0  0  0  0  0  0  0
    0.3460   -0.3580    0.0000 S   0  0  0  0  0  0  0  0  0  0  0  0
    0.8760   -0.9900    0.0000 O   0  0  0  0  0  0  0  0  0  0  0  0
   -0.1840   -0.9900    0.0000 O   0  0  0  0  0  0  0  0  0  0  0  0
   -0.3690    0.0550    0.0000 N   0  0  0  0  0  0  0  0  0  0  0  0
   -1.0830   -0.3580    0.0000 C   0  0  0  0  0  0  0  0  0  0  0  0
   -1.4190    0.5390    0.0000 O   0  0  0  0  0  0  0  0  0  0  0  0
  1  2  1  0  0  0  0
  2  3  2  0  0  0  0
  2  6  1  0  0  0  0
  3  4  1  0  0  0  0
  4  5  2  0  0  0  0
  5  6  1  0  0  0  0
  5  7  1  0  0  0  0
  7  8  1  0  0  0  0
  8  9  2  0  0  0  0
  8 23  1  0  0  0  0
  9 10  1  0  0  0  0
  9 21  1  0  0  0  0
 10 11  2  0  0  0  0
 10 12  1  0  0  0  0
 12 13  1  0  0  0  0
 12 17  2  0  0  0  0
 13 14  2  0  0  0  0
 14 15  1  0  0  0  0
 15 16  2  0  0  0  0
 16 17  1  0  0  0  0
 17 18  1  0  0  0  0
 18 19  2  0  0  0  0
 18 20  2  0  0  0  0
 18 21  1  0  0  0  0
 21 22  1  0  0  0  0
M  END
> <MOL_ID>
94

>  <Name_of_compounds>
Meloxicam

>  <Activity_Profiles>
0 0 0 0 0

> <INITIAL_ID>
1786

> <SUM_activity>
0

$$$$
1785
  MOE2007           2D

 19 21  0  0  1  0  0  0  0  0999 V2000
   -0.0390   -2.2450    0.0000 C   0  0  0  0  0  0  0  0  0  0  0  0
    0.4460   -2.9120    0.0000 C   0  0  0  0  0  0  0  0  0  0  0  0
    1.2310   -2.6570    0.0000 N   0  0  0  0  0  0  0  0  0  0  0  0
    1.2310   -1.8320    0.0000 C   0  0  0  0  0  0  0  0  0  0  0  0
    2.0150   -1.5770    0.0000 C   0  0  0  0  0  0  0  0  0  0  0  0
    2.5000   -2.2450    0.0000 C   0  0  0  0  0  0  0  0  0  0  0  0
    2.0150   -2.9120    0.0000 C   0  0  0  0  0  0  0  0  0  0  0  0
    2.2700   -3.6970    0.0000 C   0  0  0  0  0  0  0  0  0  0  0  0
    1.7180   -4.3100    0.0000 O   0  0  0  0  0  0  0  0  0  0  0  0
    3.0780   -3.8680    0.0000 C   0  0  0  0  0  0  0  0  0  0  0  0
    3.6300   -3.2550    0.0000 C   0  0  0  0  0  0  0  0  0  0  0  0
    4.4360   -3.4270    0.0000 C   0  0  0  0  0  0  0  0  0  0  0  0
    4.6910   -4.2110    0.0000 C   0  0  0  0  0  0  0  0  0  0  0  0
    4.1390   -4.8240    0.0000 C   0  0  0  0  0  0  0  0  0  0  0  0
    3.3320   -4.6530    0.0000 C   0  0  0  0  0  0  0  0  0  0  0  0
    0.4460   -1.5770    0.0000 C   0  0  3  0  0  0  0  0  0  0  0  0
    0.1910   -0.7920    0.0000 C   0  0  0  0  0  0  0  0  0  0  0  0
   -0.6160   -0.6210    0.0000 O   0  0  0  0  0  0  0  0  0  0  0  0
    0.7430   -0.1790    0.0000 O   0  0  0  0  0  0  0  0  0  0  0  0
  1  2  1  0  0  0  0
  1 16  1  0  0  0  0
  2  3  1  0  0  0  0
  3  4  1  0  0  0  0
  3  7  1  0  0  0  0
  4  5  2  0  0  0  0
  4 16  1  0  0  0  0
  5  6  1  0  0  0  0
  6  7  2  0  0  0  0
  7  8  1  0  0  0  0
  8  9  2  0  0  0  0
  8 10  1  0  0  0  0
 10 11  1  0  0  0  0
 10 15  2  0  0  0  0
 11 12  2  0  0  0  0
 12 13  1  0  0  0  0
 13 14  2  0  0  0  0
 14 15  1  0  0  0  0
 16 17  1  0  0  0  0
 17 18  2  0  0  0  0
 17 19  1  0  0  0  0
M  END
> <MOL_ID>
93

>  <Name_of_compounds>
Ketorolac

>  <Activity_Profiles>
0 0 0 0 0

> <INITIAL_ID>
1785

> <SUM_activity>
0

$$$$
1787
  MOE2007           2D

 17 18  0  0  1  0  0  0  0  0999 V2000
   -1.4290   -2.7180    0.0000 C   0  0  0  0  0  0  0  0  0  0  0  0
   -1.4290   -1.8930    0.0000 C   0  0  3  0  0  0  0  0  0  0  0  0
   -0.7140   -1.4800    0.0000 C   0  0  0  0  0  0  0  0  0  0  0  0
    0.0000   -1.8930    0.0000 C   0  0  0  0  0  0  0  0  0  0  0  0
    0.7140   -1.4800    0.0000 C   0  0  0  0  0  0  0  0  0  0  0  0
    0.7140   -0.6550    0.0000 C   0  0  0  0  0  0  0  0  0  0  0  0
    0.0000   -0.2430    0.0000 C   0  0  0  0  0  0  0  0  0  0  0  0
   -0.7140   -0.6550    0.0000 C   0  0  0  0  0  0  0  0  0  0  0  0
    1.4290   -0.2430    0.0000 C   0  0  0  0  0  0  0  0  0  0  0  0
    2.1430   -0.6550    0.0000 C   0  0  0  0  0  0  0  0  0  0  0  0
    2.1430   -1.4800    0.0000 C   0  0  0  0  0  0  0  0  0  0  0  0
    1.4290   -1.8930    0.0000 C   0  0  0  0  0  0  0  0  0  0  0  0
    2.8580   -0.2430    0.0000 O   0  0  0  0  0  0  0  0  0  0  0  0
    3.5720   -0.6550    0.0000 C   0  0  0  0  0  0  0  0  0  0  0  0
   -2.1430   -1.4800    0.0000 C   0  0  0  0  0  0  0  0  0  0  0  0
   -2.8580   -1.8930    0.0000 O   0  0  0  0  0  0  0  0  0  0  0  0
   -2.1430   -0.6550    0.0000 O   0  0  0  0  0  0  0  0  0  0  0  0
  1  2  1  0  0  0  0
  2  3  1  0  0  0  0
  2 15  1  0  0  0  0
  3  4  2  0  0  0  0
  3  8  1  0  0  0  0
  4  5  1  0  0  0  0
  5  6  1  0  0  0  0
  5 12  2  0  0  0  0
  6  7  1  0  0  0  0
  6  9  2  0  0  0  0
  7  8  2  0  0  0  0
  9 10  1  0  0  0  0
 10 11  2  0  0  0  0
 10 13  1  0  0  0  0
 11 12  1  0  0  0  0
 13 14  1  0  0  0  0
 15 16  2  0  0  0  0
 15 17  1  0  0  0  0
M  END
> <MOL_ID>
95

>  <Name_of_compounds>
Naproxen

>  <Activity_Profiles>
0 0 0 0 0

> <INITIAL_ID>
1787

> <SUM_activity>
0

$$$$
1854
  MOE2007           2D

 49 61  0  0  1  0  0  0  0  0999 V2000
   11.0630   14.6820    0.0000 C   0  0  0  0  0  0  0  0  0  0  0  0
   11.7930   14.2980    0.0000 C   0  0  0  0  0  0  0  0  0  0  0  0
   11.0950   13.8580    0.0000 C   0  0  0  0  0  0  0  0  0  0  0  0
   10.7110   13.1280    0.0000 C   0  0  3  0  0  0  0  0  0  0  0  0
   11.0920   12.3750    0.0000 C   0  0  0  0  0  0  0  0  0  0  0  0
   10.7100   11.5830    0.0000 C   0  0  0  0  0  0  0  0  0  0  0  0
    9.8540   11.2710    0.0000 C   0  0  0  0  0  0  0  0  0  0  0  0
    9.7490   10.4520    0.0000 C   0  0  0  0  0  0  0  0  0  0  0  0
   10.4300    9.9590    0.0000 C   0  0  0  0  0  0  0  0  0  0  0  0
   11.2010   10.2780    0.0000 C   0  0  0  0  0  0  0  0  0  0  0  0
   11.3540   11.0830    0.0000 C   0  0  0  0  0  0  0  0  0  0  0  0
   10.3330    9.1390    0.0000 O   0  0  0  0  0  0  0  0  0  0  0  0
    8.9180   10.2960    0.0000 O   0  0  0  0  0  0  0  0  0  0  0  0
    8.4820   11.0150    0.0000 C   0  0  3  0  0  0  0  0  0  0  0  0
    9.0020   11.6370    0.0000 C   0  0  3  0  0  0  0  0  0  0  0  0
    9.5230   12.2030    0.0000 C   0  0  0  0  0  0  0  0  0  0  0  0
    9.2410   13.1780    0.0000 C   0  0  0  0  0  0  0  0  0  0  0  0
    9.8340   13.0090    0.0000 N   0  0  0  0  0  0  0  0  0  0  0  0
    9.0900   12.1090    0.0000 C   0  0  0  0  0  0  0  0  0  0  0  0
    8.4800   12.4980    0.0000 C   0  0  3  0  0  0  0  0  0  0  0  0
    7.7200   12.6750    0.0000 C   0  0  0  0  0  0  0  0  0  0  0  0
    7.4360   11.9670    0.0000 C   0  0  0  0  0  0  0  0  0  0  0  0
    7.6970   11.1840    0.0000 C   0  0  0  0  0  0  0  0  0  0  0  0
    7.0330   10.6940    0.0000 N   0  0  0  0  0  0  0  0  0  0  0  0
    6.3620   11.1740    0.0000 C   0  0  0  0  0  0  0  0  0  0  0  0
    6.6110   11.9610    0.0000 C   0  0  0  0  0  0  0  0  0  0  0  0
    6.2560   12.6280    0.0000 C   0  0  0  0  0  0  0  0  0  0  0  0
    5.3740   12.4570    0.0000 C   0  0  3  0  0  0  0  0  0  0  0  0
    4.9110   13.3460    0.0000 C   0  0  0  0  0  0  0  0  0  0  0  0
    4.3530   13.5630    0.0000 N   0  0  0  0  0  0  0  0  0  0  0  0
    5.3170   13.6890    0.0000 C   0  0  0  0  0  0  0  0  0  0  0  0
    5.7160   12.8100    0.0000 C   0  0  0  0  0  0  0  0  0  0  0  0
    5.1160   11.8810    0.0000 C   0  0  3  0  0  0  0  0  0  0  0  0
    5.5780   11.1220    0.0000 C   0  0  3  0  0  0  0  0  0  0  0  0
    5.2710   10.3500    0.0000 O   0  0  0  0  0  0  0  0  0  0  0  0
    4.4730   10.5060    0.0000 C   0  0  0  0  0  0  0  0  0  0  0  0
    3.8640    9.9240    0.0000 C   0  0  0  0  0  0  0  0  0  0  0  0
    3.0840   10.1910    0.0000 C   0  0  0  0  0  0  0  0  0  0  0  0
    2.9370   11.0160    0.0000 C   0  0  0  0  0  0  0  0  0  0  0  0
    3.5560   11.6200    0.0000 C   0  0  0  0  0  0  0  0  0  0  0  0
    4.3590   11.3690    0.0000 C   0  0  0  0  0  0  0  0  0  0  0  0
    3.2370   12.4170    0.0000 C   0  0  0  0  0  0  0  0  0  0  0  0
    3.5390   13.2190    0.0000 C   0  0  3  0  0  0  0  0  0  0  0  0
    2.9440   13.7900    0.0000 C   0  0  0  0  0  0  0  0  0  0  0  0
    2.1430   13.9880    0.0000 C   0  0  0  0  0  0  0  0  0  0  0  0
    2.7140   14.5830    0.0000 C   0  0  0  0  0  0  0  0  0  0  0  0
    4.0410    9.1180    0.0000 O   0  0  0  0  0  0  0  0  0  0  0  0
    4.5490   12.4320    0.0000 O   0  0  0  0  0  0  0  0  0  0  0  0
    8.8000   13.2580    0.0000 O   0  0  0  0  0  0  0  0  0  0  0  0
  1  2  1  0  0  0  0
  1  3  1  0  0  0  0
  2  3  1  0  0  0  0
  3  4  1  0  0  0  0
  4  5  1  0  0  0  0
  4 18  1  0  0  0  0
  5  6  1  0  0  0  0
  6  7  1  0  0  0  0
  6 11  2  0  0  0  0
  7  8  2  0  0  0  0
  7 15  1  0  0  0  0
  8  9  1  0  0  0  0
  8 13  1  0  0  0  0
  9 10  2  0  0  0  0
  9 12  1  0  0  0  0
 10 11  1  0  0  0  0
 13 14  1  0  0  0  0
 14 15  1  0  0  0  0
 14 23  1  0  0  0  0
 15 16  1  0  0  0  0
 15 20  1  0  0  0  0
 16 17  1  0  0  0  0
 17 18  1  0  0  0  0
 18 19  1  0  0  0  0
 19 20  1  0  0  0  0
 20 21  1  0  0  0  0
 20 49  1  0  0  0  0
 21 22  1  0  0  0  0
 22 23  2  0  0  0  0
 22 26  1  0  0  0  0
 23 24  1  0  0  0  0
 24 25  1  0  0  0  0
 25 26  2  0  0  0  0
 25 34  1  0  0  0  0
 26 27  1  0  0  0  0
 27 28  1  0  0  0  0
 28 29  1  0  0  0  0
 28 33  1  0  0  0  0
 28 48  1  0  0  0  0
 29 30  1  0  0  0  0
 30 31  1  0  0  0  0
 30 43  1  0  0  0  0
 31 32  1  0  0  0  0
 32 33  1  0  0  0  0
 33 34  1  0  0  0  0
 33 41  1  0  0  0  0
 34 35  1  0  0  0  0
 35 36  1  0  0  0  0
 36 37  1  0  0  0  0
 36 41  2  0  0  0  0
 37 38  2  0  0  0  0
 37 47  1  0  0  0  0
 38 39  1  0  0  0  0
 39 40  2  0  0  0  0
 40 41  1  0  0  0  0
 40 42  1  0  0  0  0
 42 43  1  0  0  0  0
 43 44  1  0  0  0  0
 44 45  1  0  0  0  0
 44 46  1  0  0  0  0
 45 46  1  0  0  0  0
M  END
> <MOL_ID>
103

>  <Name_of_compounds>
nor-BNI

>  <Activity_Profiles>
0 0 0 0 0

> <INITIAL_ID>
1854

> <SUM_activity>
0

$$$$
2022
  MOE2007           2D

 22 25  0  0  1  0  0  0  0  0999 V2000
    7.2500   -3.3000    0.0000 C   0  0  0  0  0  0  0  0  0  0  0  0
    6.6780   -3.8950    0.0000 C   0  0  3  0  0  0  0  0  0  0  0  0
    6.9590   -3.1190    0.0000 C   0  0  3  0  0  0  0  0  0  0  0  0
    6.3070   -2.6130    0.0000 C   0  0  0  0  0  0  0  0  0  0  0  0
    5.6240   -3.0760    0.0000 C   0  0  0  0  0  0  0  0  0  0  0  0
    5.8540   -3.8680    0.0000 C   0  0  3  0  0  0  0  0  0  0  0  0
    5.0930   -4.1870    0.0000 O   0  0  0  0  0  0  0  0  0  0  0  0
    5.7320   -4.6840    0.0000 C   0  0  0  0  0  0  0  0  0  0  0  0
    5.6110   -5.5000    0.0000 C   0  0  0  0  0  0  0  0  0  0  0  0
    7.7710   -2.9740    0.0000 C   0  0  3  0  0  0  0  0  0  0  0  0
    8.0510   -2.1980    0.0000 C   0  0  0  0  0  0  0  0  0  0  0  0
    8.8630   -2.0530    0.0000 C   0  0  0  0  0  0  0  0  0  0  0  0
    9.3950   -2.6840    0.0000 C   0  0  0  0  0  0  0  0  0  0  0  0
   10.2070   -2.5380    0.0000 C   0  0  0  0  0  0  0  0  0  0  0  0
   10.7390   -3.1690    0.0000 C   0  0  0  0  0  0  0  0  0  0  0  0
   11.5510   -3.0240    0.0000 O   0  0  0  0  0  0  0  0  0  0  0  0
   10.4590   -3.9450    0.0000 C   0  0  0  0  0  0  0  0  0  0  0  0
    9.6460   -4.0900    0.0000 C   0  0  0  0  0  0  0  0  0  0  0  0
    9.1150   -3.4600    0.0000 C   0  0  0  0  0  0  0  0  0  0  0  0
    8.3020   -3.6050    0.0000 C   0  0  3  0  0  0  0  0  0  0  0  0
    8.0220   -4.3810    0.0000 C   0  0  0  0  0  0  0  0  0  0  0  0
    7.2100   -4.5260    0.0000 C   0  0  0  0  0  0  0  0  0  0  0  0
  1  2  1  0  0  0  0
  2  3  1  0  0  0  0
  2  6  1  0  0  0  0
  2 22  1  0  0  0  0
  3  4  1  0  0  0  0
  3 10  1  0  0  0  0
  4  5  1  0  0  0  0
  5  6  1  0  0  0  0
  6  7  1  0  0  0  0
  6  8  1  0  0  0  0
  8  9  3  0  0  0  0
 10 11  1  0  0  0  0
 10 20  1  0  0  0  0
 11 12  1  0  0  0  0
 12 13  1  0  0  0  0
 13 14  1  0  0  0  0
 13 19  2  0  0  0  0
 14 15  2  0  0  0  0
 15 16  1  0  0  0  0
 15 17  1  0  0  0  0
 17 18  2  0  0  0  0
 18 19  1  0  0  0  0
 19 20  1  0  0  0  0
 20 21  1  0  0  0  0
 21 22  1  0  0  0  0
M  END
> <MOL_ID>
107

>  <Name_of_compounds>
17alpha ethynyl estradiol

>  <Activity_Profiles>
0 0 0 0 0

> <INITIAL_ID>
2022

> <SUM_activity>
0

$$$$
1855
  MOE2007           2D

 34 37  0  0  1  0  0  0  0  0999 V2000
   -0.1430   -0.6680    0.0000 O   0  0  0  0  0  0  0  0  0  0  0  0
    0.5710   -0.2550    0.0000 C   0  0  0  0  0  0  0  0  0  0  0  0
    1.2860   -0.6680    0.0000 C   0  0  2  0  0  0  0  0  0  0  0  0
    1.2860   -1.4930    0.0000 N   0  0  0  0  0  0  0  0  0  0  0  0
    2.0000   -1.9050    0.0000 C   0  0  0  0  0  0  0  0  0  0  0  0
    2.7150   -1.4930    0.0000 C   0  0  0  0  0  0  0  0  0  0  0  0
    2.7150   -0.6680    0.0000 C   0  0  0  0  0  0  0  0  0  0  0  0
    3.4290   -0.2550    0.0000 C   0  0  0  0  0  0  0  0  0  0  0  0
    4.1440   -0.6680    0.0000 C   0  0  0  0  0  0  0  0  0  0  0  0
    4.1440   -1.4930    0.0000 C   0  0  0  0  0  0  0  0  0  0  0  0
    4.8580   -1.9050    0.0000 O   0  0  0  0  0  0  0  0  0  0  0  0
    3.4290   -1.9050    0.0000 C   0  0  0  0  0  0  0  0  0  0  0  0
    2.0000   -0.2550    0.0000 C   0  0  0  0  0  0  0  0  0  0  0  0
    0.5710    0.5700    0.0000 N   0  0  0  0  0  0  0  0  0  0  0  0
    1.2860    0.9820    0.0000 C   0  0  2  0  0  0  0  0  0  0  0  0
    2.0000    0.5700    0.0000 C   0  0  0  0  0  0  0  0  0  0  0  0
    2.7150    0.9820    0.0000 N   0  0  0  0  0  0  0  0  0  0  0  0
    2.7150    1.8070    0.0000 C   0  0  0  0  0  0  0  0  0  0  0  0
    3.4290    2.2200    0.0000 C   0  0  2  0  0  0  0  0  0  0  0  0
    3.4290    3.0450    0.0000 C   0  0  0  0  0  0  0  0  0  0  0  0
    4.1440    1.8070    0.0000 C   0  0  2  0  0  0  0  0  0  0  0  0
    4.4260    2.5830    0.0000 C   0  0  0  0  0  0  0  0  0  0  0  0
    4.9560    1.6640    0.0000 C   0  0  0  0  0  0  0  0  0  0  0  0
    5.4860    2.2960    0.0000 C   0  0  0  0  0  0  0  0  0  0  0  0
    6.2990    2.1530    0.0000 C   0  0  0  0  0  0  0  0  0  0  0  0
    6.5810    1.3780    0.0000 C   0  0  0  0  0  0  0  0  0  0  0  0
    6.0510    0.7460    0.0000 C   0  0  0  0  0  0  0  0  0  0  0  0
    6.3330   -0.0300    0.0000 O   0  0  0  0  0  0  0  0  0  0  0  0
    5.2380    0.8890    0.0000 C   0  0  0  0  0  0  0  0  0  0  0  0
    4.1440    0.9820    0.0000 C   0  0  0  0  0  0  0  0  0  0  0  0
    3.4290    0.5700    0.0000 C   0  0  0  0  0  0  0  0  0  0  0  0
    1.2860    1.8070    0.0000 C   0  0  0  0  0  0  0  0  0  0  0  0
    0.5710    2.2200    0.0000 C   0  0  0  0  0  0  0  0  0  0  0  0
    2.0000    2.2200    0.0000 C   0  0  0  0  0  0  0  0  0  0  0  0
  1  2  2  0  0  0  0
  3  2  1  1  0  0  0
  2 14  1  0  0  0  0
  3  4  1  0  0  0  0
  3 13  1  0  0  0  0
  4  5  1  0  0  0  0
  5  6  1  0  0  0  0
  6  7  1  0  0  0  0
  6 12  2  0  0  0  0
  7  8  2  0  0  0  0
  7 13  1  0  0  0  0
  8  9  1  0  0  0  0
  9 10  2  0  0  0  0
 10 11  1  0  0  0  0
 10 12  1  0  0  0  0
 15 14  1  1  0  0  0
 15 16  1  0  0  0  0
 15 32  1  0  0  0  0
 16 17  1  0  0  0  0
 17 18  1  0  0  0  0
 17 31  1  0  0  0  0
 18 19  1  0  0  0  0
 19 20  1  6  0  0  0
 19 21  1  0  0  0  0
 21 22  1  1  0  0  0
 21 23  1  6  0  0  0
 21 30  1  0  0  0  0
 23 24  1  0  0  0  0
 23 29  2  0  0  0  0
 24 25  2  0  0  0  0
 25 26  1  0  0  0  0
 26 27  2  0  0  0  0
 27 28  1  0  0  0  0
 27 29  1  0  0  0  0
 30 31  1  0  0  0  0
 32 33  1  0  0  0  0
 32 34  1  0  0  0  0
M  END
> <MOL_ID>
104

>  <Name_of_compounds>
Jdtic

>  <Activity_Profiles>
0 0 0 0 0

> <INITIAL_ID>
1855

> <SUM_activity>
0

$$$$
1792
  MOE2007           2D

 22 24  0  0  0  0  0  0  0  0999 V2000
    1.8850   -2.0540    0.0000 C   0  0  0  0  0  0  0  0  0  0  0  0
    1.8850   -2.8780    0.0000 C   0  0  0  0  0  0  0  0  0  0  0  0
    2.5530   -3.3630    0.0000 C   0  0  0  0  0  0  0  0  0  0  0  0
    2.2980   -4.1480    0.0000 C   0  0  0  0  0  0  0  0  0  0  0  0
    1.4730   -4.1480    0.0000 N   0  0  0  0  0  0  0  0  0  0  0  0
    1.2180   -3.3630    0.0000 O   0  0  0  0  0  0  0  0  0  0  0  0
    2.7830   -4.8160    0.0000 C   0  0  0  0  0  0  0  0  0  0  0  0
    3.6030   -4.7290    0.0000 C   0  0  0  0  0  0  0  0  0  0  0  0
    4.0880   -5.3970    0.0000 C   0  0  0  0  0  0  0  0  0  0  0  0
    3.7520   -6.1500    0.0000 C   0  0  0  0  0  0  0  0  0  0  0  0
    2.9320   -6.2370    0.0000 C   0  0  0  0  0  0  0  0  0  0  0  0
    2.4470   -5.5690    0.0000 C   0  0  0  0  0  0  0  0  0  0  0  0
    3.3370   -3.1080    0.0000 C   0  0  0  0  0  0  0  0  0  0  0  0
    3.5090   -2.3020    0.0000 C   0  0  0  0  0  0  0  0  0  0  0  0
    4.2930   -2.0470    0.0000 C   0  0  0  0  0  0  0  0  0  0  0  0
    4.9060   -2.5990    0.0000 C   0  0  0  0  0  0  0  0  0  0  0  0
    4.7350   -3.4060    0.0000 C   0  0  0  0  0  0  0  0  0  0  0  0
    3.9500   -3.6600    0.0000 C   0  0  0  0  0  0  0  0  0  0  0  0
    5.6910   -2.3440    0.0000 S   0  0  0  0  0  0  0  0  0  0  0  0
    5.9460   -3.1280    0.0000 O   0  0  0  0  0  0  0  0  0  0  0  0
    6.4760   -2.0890    0.0000 O   0  0  0  0  0  0  0  0  0  0  0  0
    5.4360   -1.5590    0.0000 N   0  0  0  0  0  0  0  0  0  0  0  0
  1  2  1  0  0  0  0
  2  3  2  0  0  0  0
  2  6  1  0  0  0  0
  3  4  1  0  0  0  0
  3 13  1  0  0  0  0
  4  5  2  0  0  0  0
  4  7  1  0  0  0  0
  5  6  1  0  0  0  0
  7  8  1  0  0  0  0
  7 12  2  0  0  0  0
  8  9  2  0  0  0  0
  9 10  1  0  0  0  0
 10 11  2  0  0  0  0
 11 12  1  0  0  0  0
 13 14  1  0  0  0  0
 13 18  2  0  0  0  0
 14 15  2  0  0  0  0
 15 16  1  0  0  0  0
 16 17  2  0  0  0  0
 16 19  1  0  0  0  0
 17 18  1  0  0  0  0
 19 20  2  0  0  0  0
 19 21  2  0  0  0  0
 19 22  1  0  0  0  0
M  END
> <MOL_ID>
100

>  <Name_of_compounds>
VALDECOXIB

>  <Activity_Profiles>
0 0 0 0 0

> <INITIAL_ID>
1792

> <SUM_activity>
0

$$$$
1791
  MOE2007           2D

 22 24  0  0  0  0  0  0  0  0999 V2000
    1.8120    2.5140    0.0000 C   0  0  0  0  0  0  0  0  0  0  0  0
    2.6370    2.5140    0.0000 S   0  0  0  0  0  0  0  0  0  0  0  0
    2.6370    3.3390    0.0000 O   0  0  0  0  0  0  0  0  0  0  0  0
    3.4620    2.5140    0.0000 O   0  0  0  0  0  0  0  0  0  0  0  0
    2.6370    1.6890    0.0000 C   0  0  0  0  0  0  0  0  0  0  0  0
    3.3510    1.2760    0.0000 C   0  0  0  0  0  0  0  0  0  0  0  0
    3.3510    0.4510    0.0000 C   0  0  0  0  0  0  0  0  0  0  0  0
    2.6370    0.0390    0.0000 C   0  0  0  0  0  0  0  0  0  0  0  0
    1.9220    0.4510    0.0000 C   0  0  0  0  0  0  0  0  0  0  0  0
    1.9220    1.2760    0.0000 C   0  0  0  0  0  0  0  0  0  0  0  0
    2.6370   -0.7860    0.0000 C   0  0  0  0  0  0  0  0  0  0  0  0
    3.3040   -1.2710    0.0000 C   0  0  0  0  0  0  0  0  0  0  0  0
    3.0490   -2.0560    0.0000 C   0  0  0  0  0  0  0  0  0  0  0  0
    3.5340   -2.7230    0.0000 O   0  0  0  0  0  0  0  0  0  0  0  0
    2.2240   -2.0560    0.0000 O   0  0  0  0  0  0  0  0  0  0  0  0
    1.9700   -1.2710    0.0000 C   0  0  0  0  0  0  0  0  0  0  0  0
    4.0890   -1.0160    0.0000 C   0  0  0  0  0  0  0  0  0  0  0  0
    4.2600   -0.2090    0.0000 C   0  0  0  0  0  0  0  0  0  0  0  0
    5.0450    0.0460    0.0000 C   0  0  0  0  0  0  0  0  0  0  0  0
    5.6580   -0.5060    0.0000 C   0  0  0  0  0  0  0  0  0  0  0  0
    5.4870   -1.3140    0.0000 C   0  0  0  0  0  0  0  0  0  0  0  0
    4.7020   -1.5680    0.0000 C   0  0  0  0  0  0  0  0  0  0  0  0
  1  2  1  0  0  0  0
  2  3  2  0  0  0  0
  2  4  2  0  0  0  0
  2  5  1  0  0  0  0
  5  6  1  0  0  0  0
  5 10  2  0  0  0  0
  6  7  2  0  0  0  0
  7  8  1  0  0  0  0
  8  9  2  0  0  0  0
  8 11  1  0  0  0  0
  9 10  1  0  0  0  0
 11 12  2  0  0  0  0
 11 16  1  0  0  0  0
 12 13  1  0  0  0  0
 12 17  1  0  0  0  0
 13 14  2  0  0  0  0
 13 15  1  0  0  0  0
 15 16  1  0  0  0  0
 17 18  1  0  0  0  0
 17 22  2  0  0  0  0
 18 19  2  0  0  0  0
 19 20  1  0  0  0  0
 20 21  2  0  0  0  0
 21 22  1  0  0  0  0
M  END
> <MOL_ID>
99

>  <Name_of_compounds>
ROFECOXIB

>  <Activity_Profiles>
0 0 0 0 0

> <INITIAL_ID>
1791

> <SUM_activity>
0

$$$$
1797
  MOE2007           2D

 35 38  0  0  0  0  0  0  0  0999 V2000
   -0.9110    0.5070    0.0000 O   0  0  0  0  0  0  0  0  0  0  0  0
   -0.3580    1.1200    0.0000 C   0  0  0  0  0  0  0  0  0  0  0  0
   -0.6140    1.9040    0.0000 N   0  0  0  0  0  0  0  0  0  0  0  0
   -0.0610    2.5180    0.0000 C   0  0  0  0  0  0  0  0  0  0  0  0
   -0.3160    3.3020    0.0000 C   0  0  0  0  0  0  0  0  0  0  0  0
    0.2360    3.9150    0.0000 C   0  0  0  0  0  0  0  0  0  0  0  0
    1.0430    3.7440    0.0000 C   0  0  0  0  0  0  0  0  0  0  0  0
    1.5950    4.3570    0.0000 N   0  0  0  0  0  0  0  0  0  0  0  0
    1.3400    5.1420    0.0000 C   0  0  0  0  0  0  0  0  0  0  0  0
    0.5330    5.3130    0.0000 C   0  0  0  0  0  0  0  0  0  0  0  0
    1.8920    5.7550    0.0000 O   0  0  0  0  0  0  0  0  0  0  0  0
    1.2980    2.9590    0.0000 C   0  0  0  0  0  0  0  0  0  0  0  0
    0.7460    2.3460    0.0000 C   0  0  0  0  0  0  0  0  0  0  0  0
    0.4480    0.9480    0.0000 C   0  0  0  0  0  0  0  0  0  0  0  0
    0.7030    0.1640    0.0000 C   0  0  0  0  0  0  0  0  0  0  0  0
    0.2180   -0.5040    0.0000 C   0  0  0  0  0  0  0  0  0  0  0  0
   -0.6060   -0.5040    0.0000 C   0  0  0  0  0  0  0  0  0  0  0  0
    0.7030   -1.1710    0.0000 N   0  0  0  0  0  0  0  0  0  0  0  0
    0.4480   -1.9560    0.0000 C   0  0  0  0  0  0  0  0  0  0  0  0
    1.0000   -2.5690    0.0000 C   0  0  0  0  0  0  0  0  0  0  0  0
    1.8080   -2.3970    0.0000 C   0  0  0  0  0  0  0  0  0  0  0  0
    2.3600   -3.0100    0.0000 C   0  0  0  0  0  0  0  0  0  0  0  0
    2.1040   -3.7950    0.0000 C   0  0  0  0  0  0  0  0  0  0  0  0
    2.6570   -4.4080    0.0000 Cl  0  0  0  0  0  0  0  0  0  0  0  0
    1.2980   -3.9660    0.0000 C   0  0  0  0  0  0  0  0  0  0  0  0
    0.7460   -3.3530    0.0000 C   0  0  0  0  0  0  0  0  0  0  0  0
   -0.3580   -2.1270    0.0000 O   0  0  0  0  0  0  0  0  0  0  0  0
    1.4880   -0.9160    0.0000 C   0  0  0  0  0  0  0  0  0  0  0  0
    1.4880   -0.0910    0.0000 C   0  0  0  0  0  0  0  0  0  0  0  0
    2.2020    0.3210    0.0000 C   0  0  0  0  0  0  0  0  0  0  0  0
    2.9170   -0.0910    0.0000 C   0  0  0  0  0  0  0  0  0  0  0  0
    3.6310    0.3210    0.0000 O   0  0  0  0  0  0  0  0  0  0  0  0
    4.3460   -0.0910    0.0000 C   0  0  0  0  0  0  0  0  0  0  0  0
    2.9170   -0.9160    0.0000 C   0  0  0  0  0  0  0  0  0  0  0  0
    2.2020   -1.3290    0.0000 C   0  0  0  0  0  0  0  0  0  0  0  0
  1  2  2  0  0  0  0
  2  3  1  0  0  0  0
  2 14  1  0  0  0  0
  3  4  1  0  0  0  0
  4  5  1  0  0  0  0
  4 13  2  0  0  0  0
  5  6  2  0  0  0  0
  6  7  1  0  0  0  0
  7  8  1  0  0  0  0
  7 12  2  0  0  0  0
  8  9  1  0  0  0  0
  9 10  1  0  0  0  0
  9 11  2  0  0  0  0
 12 13  1  0  0  0  0
 14 15  1  0  0  0  0
 15 16  2  0  0  0  0
 15 29  1  0  0  0  0
 16 17  1  0  0  0  0
 16 18  1  0  0  0  0
 18 19  1  0  0  0  0
 18 28  1  0  0  0  0
 19 20  1  0  0  0  0
 19 27  2  0  0  0  0
 20 21  1  0  0  0  0
 20 26  2  0  0  0  0
 21 22  2  0  0  0  0
 22 23  1  0  0  0  0
 23 24  1  0  0  0  0
 23 25  2  0  0  0  0
 25 26  1  0  0  0  0
 28 29  1  0  0  0  0
 28 35  2  0  0  0  0
 29 30  2  0  0  0  0
 30 31  1  0  0  0  0
 31 32  1  0  0  0  0
 31 34  2  0  0  0  0
 32 33  1  0  0  0  0
 34 35  1  0  0  0  0
M  END
> <MOL_ID>
101

>  <Name_of_compounds>
N-(4-Acetamidophenyl)indomethacinamide

>  <Activity_Profiles>
0 0 0 0 0

> <INITIAL_ID>
1797

> <SUM_activity>
0

$$$$
1778
  MOE2007           2D

 17 18  0  0  1  0  0  0  0  0999 V2000
    0.2100   -2.8390    0.0000 C   0  0  0  0  0  0  0  0  0  0  0  0
    0.2100   -2.0140    0.0000 C   0  0  2  0  0  0  0  0  0  0  0  0
    0.9250   -1.6020    0.0000 C   0  0  0  0  0  0  0  0  0  0  0  0
    0.9250   -0.7760    0.0000 C   0  0  0  0  0  0  0  0  0  0  0  0
    1.6390   -0.3640    0.0000 C   0  0  0  0  0  0  0  0  0  0  0  0
    2.3540   -0.7760    0.0000 C   0  0  0  0  0  0  0  0  0  0  0  0
    3.0680   -0.3640    0.0000 C   0  0  0  0  0  0  0  0  0  0  0  0
    3.7820   -0.7760    0.0000 C   0  0  0  0  0  0  0  0  0  0  0  0
    4.4970   -0.3640    0.0000 O   0  0  0  0  0  0  0  0  0  0  0  0
    5.2110   -0.7760    0.0000 C   0  0  0  0  0  0  0  0  0  0  0  0
    3.7820   -1.6020    0.0000 C   0  0  0  0  0  0  0  0  0  0  0  0
    3.0680   -2.0140    0.0000 C   0  0  0  0  0  0  0  0  0  0  0  0
    2.3540   -1.6020    0.0000 C   0  0  0  0  0  0  0  0  0  0  0  0
    1.6390   -2.0140    0.0000 C   0  0  0  0  0  0  0  0  0  0  0  0
   -0.5040   -1.6020    0.0000 C   0  0  0  0  0  0  0  0  0  0  0  0
   -1.2190   -2.0140    0.0000 O   0  0  0  0  0  0  0  0  0  0  0  0
   -0.5040   -0.7760    0.0000 O   0  0  0  0  0  0  0  0  0  0  0  0
  2  1  1  1  0  0  0
  2  3  1  0  0  0  0
  2 15  1  0  0  0  0
  3  4  1  0  0  0  0
  3 14  2  0  0  0  0
  4  5  2  0  0  0  0
  5  6  1  0  0  0  0
  6  7  1  0  0  0  0
  6 13  2  0  0  0  0
  7  8  2  0  0  0  0
  8  9  1  0  0  0  0
  8 11  1  0  0  0  0
  9 10  1  0  0  0  0
 11 12  2  0  0  0  0
 12 13  1  0  0  0  0
 13 14  1  0  0  0  0
 15 16  1  0  0  0  0
 15 17  2  0  0  0  0
M  END
> <MOL_ID>
86

>  <Name_of_compounds>
(-) Naproxen

>  <Activity_Profiles>
0 0 0 0 0

> <INITIAL_ID>
1778

> <SUM_activity>
0

$$$$
1777
  MOE2007           2D

 10 10  0  0  0  0  0  0  0  0999 V2000
    0.7860    0.2060    0.0000 C   0  0  0  0  0  0  0  0  0  0  0  0
    0.0710   -0.2060    0.0000 C   0  0  0  0  0  0  0  0  0  0  0  0
   -0.6430    0.2060    0.0000 C   0  0  0  0  0  0  0  0  0  0  0  0
   -0.6430    1.0310    0.0000 C   0  0  0  0  0  0  0  0  0  0  0  0
    0.0710    1.4440    0.0000 C   0  0  0  0  0  0  0  0  0  0  0  0
    0.7860    1.0310    0.0000 C   0  0  0  0  0  0  0  0  0  0  0  0
    0.0710    2.2690    0.0000 C   0  0  0  0  0  0  0  0  0  0  0  0
    0.7860    2.6810    0.0000 O   0  0  0  0  0  0  0  0  0  0  0  0
   -0.6430    2.6810    0.0000 O   0  0  0  0  0  0  0  0  0  0  0  0
   -1.3580    1.4440    0.0000 O   0  0  0  0  0  0  0  0  0  0  0  0
  1  2  1  0  0  0  0
  1  6  2  0  0  0  0
  2  3  2  0  0  0  0
  3  4  1  0  0  0  0
  4  5  2  0  0  0  0
  4 10  1  0  0  0  0
  5  6  1  0  0  0  0
  5  7  1  0  0  0  0
  7  8  2  0  0  0  0
  7  9  1  0  0  0  0
M  END
> <MOL_ID>
85

>  <Name_of_compounds>
Salicylate

>  <Activity_Profiles>
0 0 0 0 0

> <INITIAL_ID>
1777

> <SUM_activity>
0

$$$$
1779
  MOE2007           2D

 19 20  0  0  0  0  0  0  0  0999 V2000
    3.9110   -2.8660    0.0000 C   0  0  0  0  0  0  0  0  0  0  0  0
    4.6250   -3.2780    0.0000 C   0  0  0  0  0  0  0  0  0  0  0  0
    5.3400   -2.8660    0.0000 C   0  0  0  0  0  0  0  0  0  0  0  0
    5.3400   -2.0410    0.0000 C   0  0  0  0  0  0  0  0  0  0  0  0
    4.6250   -1.6280    0.0000 C   0  0  0  0  0  0  0  0  0  0  0  0
    3.9110   -2.0410    0.0000 C   0  0  0  0  0  0  0  0  0  0  0  0
    4.6250   -0.8030    0.0000 C   0  0  0  0  0  0  0  0  0  0  0  0
    5.3400   -0.3910    0.0000 C   0  0  0  0  0  0  0  0  0  0  0  0
    6.0540   -0.8030    0.0000 O   0  0  0  0  0  0  0  0  0  0  0  0
    5.3400    0.4340    0.0000 O   0  0  0  0  0  0  0  0  0  0  0  0
    6.0540   -1.6280    0.0000 N   0  0  0  0  0  0  0  0  0  0  0  0
    6.7690   -2.0410    0.0000 C   0  0  0  0  0  0  0  0  0  0  0  0
    7.4830   -1.6280    0.0000 C   0  0  0  0  0  0  0  0  0  0  0  0
    8.1980   -2.0410    0.0000 C   0  0  0  0  0  0  0  0  0  0  0  0
    8.1980   -2.8660    0.0000 C   0  0  0  0  0  0  0  0  0  0  0  0
    7.4830   -3.2780    0.0000 C   0  0  0  0  0  0  0  0  0  0  0  0
    6.7690   -2.8660    0.0000 C   0  0  0  0  0  0  0  0  0  0  0  0
    6.0540   -3.2780    0.0000 Cl  0  0  0  0  0  0  0  0  0  0  0  0
    7.4830   -0.8030    0.0000 Cl  0  0  0  0  0  0  0  0  0  0  0  0
  1  2  1  0  0  0  0
  1  6  2  0  0  0  0
  2  3  2  0  0  0  0
  3  4  1  0  0  0  0
  4  5  2  0  0  0  0
  4 11  1  0  0  0  0
  5  6  1  0  0  0  0
  5  7  1  0  0  0  0
  7  8  1  0  0  0  0
  8  9  2  0  0  0  0
  8 10  1  0  0  0  0
 11 12  1  0  0  0  0
 12 13  1  0  0  0  0
 12 17  2  0  0  0  0
 13 14  2  0  0  0  0
 13 19  1  0  0  0  0
 14 15  1  0  0  0  0
 15 16  2  0  0  0  0
 16 17  1  0  0  0  0
 17 18  1  0  0  0  0
M  END
> <MOL_ID>
87

>  <Name_of_compounds>
Diclofenac

>  <Activity_Profiles>
0 0 0 0 0

> <INITIAL_ID>
1779

> <SUM_activity>
0

$$$$
1749
  MOE2007           2D

 11 11  0  0  0  0  0  0  0  0999 V2000
   -0.5850    1.4620    0.0000 C   0  0  0  0  0  0  0  0  0  0  0  0
   -0.5850    0.6380    0.0000 N   0  0  0  0  0  0  0  0  0  0  0  0
    0.1300    0.2250    0.0000 C   0  0  0  0  0  0  0  0  0  0  0  0
    0.1300   -0.6000    0.0000 C   0  0  0  0  0  0  0  0  0  0  0  0
   -0.5850   -1.0120    0.0000 C   0  0  0  0  0  0  0  0  0  0  0  0
   -1.2990   -0.6000    0.0000 C   0  0  0  0  0  0  0  0  0  0  0  0
   -1.2990    0.2250    0.0000 C   0  0  0  0  0  0  0  0  0  0  0  0
   -2.0140   -1.0120    0.0000 C   0  0  0  0  0  0  0  0  0  0  0  0
   -2.7280   -0.6000    0.0000 O   0  0  0  0  0  0  0  0  0  0  0  0
   -2.0140   -1.8380    0.0000 O   0  0  0  0  0  0  0  0  0  0  0  0
   -2.7280   -2.2500    0.0000 C   0  0  0  0  0  0  0  0  0  0  0  0
  1  2  1  0  0  0  0
  2  3  1  0  0  0  0
  2  7  1  0  0  0  0
  3  4  1  0  0  0  0
  4  5  1  0  0  0  0
  5  6  2  0  0  0  0
  6  7  1  0  0  0  0
  6  8  1  0  0  0  0
  8  9  2  0  0  0  0
  8 10  1  0  0  0  0
 10 11  1  0  0  0  0
M  END
> <MOL_ID>
83

>  <Name_of_compounds>
Arecoline

>  <Activity_Profiles>
0 0 0 0 0

> <INITIAL_ID>
1749

> <SUM_activity>
0

$$$$
1664
  MOE2007           2D

 19 20  0  0  1  0  0  0  0  0999 V2000
    1.7740    0.1710    0.0000 C   0  0  0  0  0  0  0  0  0  0  0  0
    1.0590   -0.2410    0.0000 N   0  0  0  0  0  0  0  0  0  0  0  0
    0.3450    0.1710    0.0000 C   0  0  0  0  0  0  0  0  0  0  0  0
    1.0590   -1.0660    0.0000 C   0  0  0  0  0  0  0  0  0  0  0  0
    0.3450   -1.4790    0.0000 C   0  0  3  0  0  0  0  0  0  0  0  0
    0.3450   -2.3040    0.0000 C   0  0  0  0  0  0  0  0  0  0  0  0
   -0.3700   -2.7160    0.0000 C   0  0  0  0  0  0  0  0  0  0  0  0
   -1.0840   -2.3040    0.0000 C   0  0  0  0  0  0  0  0  0  0  0  0
   -1.0840   -1.4790    0.0000 C   0  0  0  0  0  0  0  0  0  0  0  0
   -0.3700   -1.0660    0.0000 C   0  0  3  0  0  0  0  0  0  0  0  0
   -0.7570   -0.3380    0.0000 C   0  0  0  0  0  0  0  0  0  0  0  0
   -1.5810   -0.3090    0.0000 C   0  0  0  0  0  0  0  0  0  0  0  0
   -1.9690    0.4190    0.0000 C   0  0  0  0  0  0  0  0  0  0  0  0
   -1.5310    1.1190    0.0000 C   0  0  0  0  0  0  0  0  0  0  0  0
   -0.7070    1.0900    0.0000 C   0  0  0  0  0  0  0  0  0  0  0  0
   -0.3200    0.3620    0.0000 C   0  0  0  0  0  0  0  0  0  0  0  0
   -2.7930    0.4480    0.0000 O   0  0  0  0  0  0  0  0  0  0  0  0
   -3.1800    1.1760    0.0000 C   0  0  0  0  0  0  0  0  0  0  0  0
    0.0180   -0.3380    0.0000 O   0  0  0  0  0  0  0  0  0  0  0  0
  1  2  1  0  0  0  0
  2  3  1  0  0  0  0
  2  4  1  0  0  0  0
  4  5  1  0  0  0  0
  5  6  1  0  0  0  0
  5 10  1  0  0  0  0
  6  7  1  0  0  0  0
  7  8  1  0  0  0  0
  8  9  1  0  0  0  0
  9 10  1  0  0  0  0
 10 11  1  0  0  0  0
 10 19  1  0  0  0  0
 11 12  1  0  0  0  0
 11 16  2  0  0  0  0
 12 13  2  0  0  0  0
 13 14  1  0  0  0  0
 13 17  1  0  0  0  0
 14 15  2  0  0  0  0
 15 16  1  0  0  0  0
 17 18  1  0  0  0  0
M  END
> <MOL_ID>
82

>  <Name_of_compounds>
Tramadol

>  <Activity_Profiles>
0 0 0 0 0

> <INITIAL_ID>
1664

> <SUM_activity>
0

$$$$
1756
  MOE2007           2D

 24 27  0  0  0  0  0  0  0  0999 V2000
    8.8350    7.6810    0.0000 C   0  0  0  0  0  0  0  0  0  0  0  0
    8.4770    6.9380    0.0000 N   0  0  0  0  0  0  0  0  0  0  0  0
    8.9420    6.2560    0.0000 C   0  0  0  0  0  0  0  0  0  0  0  0
    8.5840    5.5130    0.0000 C   0  0  0  0  0  0  0  0  0  0  0  0
    7.7610    5.4510    0.0000 N   0  0  0  0  0  0  0  0  0  0  0  0
    7.2960    6.1330    0.0000 C   0  0  0  0  0  0  0  0  0  0  0  0
    7.6540    6.8760    0.0000 C   0  0  0  0  0  0  0  0  0  0  0  0
    7.4030    4.7080    0.0000 C   0  0  0  0  0  0  0  0  0  0  0  0
    7.9170    4.0630    0.0000 C   0  0  0  0  0  0  0  0  0  0  0  0
    8.7060    4.3060    0.0000 C   0  0  0  0  0  0  0  0  0  0  0  0
    9.3100    3.7450    0.0000 C   0  0  0  0  0  0  0  0  0  0  0  0
    9.1270    2.9410    0.0000 C   0  0  0  0  0  0  0  0  0  0  0  0
    8.3380    2.6980    0.0000 C   0  0  0  0  0  0  0  0  0  0  0  0
    7.7340    3.2590    0.0000 C   0  0  0  0  0  0  0  0  0  0  0  0
    6.9900    2.9010    0.0000 N   0  0  0  0  0  0  0  0  0  0  0  0
    6.2470    3.2590    0.0000 C   0  0  0  0  0  0  0  0  0  0  0  0
    6.0640    4.0630    0.0000 C   0  0  0  0  0  0  0  0  0  0  0  0
    6.5780    4.7080    0.0000 N   0  0  0  0  0  0  0  0  0  0  0  0
    6.2200    5.4510    0.0000 O   0  0  0  0  0  0  0  0  0  0  0  0
    5.2750    4.3060    0.0000 C   0  0  0  0  0  0  0  0  0  0  0  0
    4.6700    3.7450    0.0000 C   0  0  0  0  0  0  0  0  0  0  0  0
    4.8540    2.9410    0.0000 C   0  0  0  0  0  0  0  0  0  0  0  0
    5.6420    2.6980    0.0000 C   0  0  0  0  0  0  0  0  0  0  0  0
    3.8820    3.9880    0.0000 Cl  0  0  0  0  0  0  0  0  0  0  0  0
  1  2  1  0  0  0  0
  2  3  1  0  0  0  0
  2  7  1  0  0  0  0
  3  4  1  0  0  0  0
  4  5  1  0  0  0  0
  5  6  1  0  0  0  0
  5  8  1  0  0  0  0
  6  7  1  0  0  0  0
  8  9  2  0  0  0  0
  8 18  1  0  0  0  0
  9 10  1  0  0  0  0
  9 14  1  0  0  0  0
 10 11  2  0  0  0  0
 11 12  1  0  0  0  0
 12 13  2  0  0  0  0
 13 14  1  0  0  0  0
 14 15  2  0  0  0  0
 15 16  1  0  0  0  0
 16 17  1  0  0  0  0
 16 23  2  0  0  0  0
 17 18  1  0  0  0  0
 17 20  2  0  0  0  0
 18 19  1  0  0  0  0
 20 21  1  0  0  0  0
 21 22  2  0  0  0  0
 21 24  1  0  0  0  0
 22 23  1  0  0  0  0
M  END
> <MOL_ID>
84

>  <Name_of_compounds>
Clozapine-N Oxide

>  <Activity_Profiles>
0 0 0 0 0

> <INITIAL_ID>
1756

> <SUM_activity>
0

$$$$
1783
  MOE2007           2D

 15 15  0  0  1  0  0  0  0  0999 V2000
   -0.0950    3.0250    0.0000 C   0  0  0  0  0  0  0  0  0  0  0  0
   -0.0950    2.2000    0.0000 C   0  0  0  0  0  0  0  0  0  0  0  0
   -0.8100    1.7880    0.0000 C   0  0  0  0  0  0  0  0  0  0  0  0
    0.6190    1.7880    0.0000 C   0  0  0  0  0  0  0  0  0  0  0  0
    0.6190    0.9620    0.0000 C   0  0  0  0  0  0  0  0  0  0  0  0
    1.3340    0.5500    0.0000 C   0  0  0  0  0  0  0  0  0  0  0  0
    1.3340   -0.2750    0.0000 C   0  0  0  0  0  0  0  0  0  0  0  0
    0.6190   -0.6880    0.0000 C   0  0  0  0  0  0  0  0  0  0  0  0
   -0.0950   -0.2750    0.0000 C   0  0  0  0  0  0  0  0  0  0  0  0
   -0.0950    0.5500    0.0000 C   0  0  0  0  0  0  0  0  0  0  0  0
    0.6190   -1.5120    0.0000 C   0  0  2  0  0  0  0  0  0  0  0  0
   -0.0950   -1.9250    0.0000 C   0  0  0  0  0  0  0  0  0  0  0  0
    1.3340   -1.9250    0.0000 C   0  0  0  0  0  0  0  0  0  0  0  0
    2.0480   -1.5120    0.0000 O   0  0  0  0  0  0  0  0  0  0  0  0
    1.3340   -2.7500    0.0000 O   0  0  0  0  0  0  0  0  0  0  0  0
  1  2  1  0  0  0  0
  2  3  1  0  0  0  0
  2  4  1  0  0  0  0
  4  5  1  0  0  0  0
  5  6  1  0  0  0  0
  5 10  2  0  0  0  0
  6  7  2  0  0  0  0
  7  8  1  0  0  0  0
  8  9  2  0  0  0  0
  8 11  1  0  0  0  0
  9 10  1  0  0  0  0
 11 12  1  1  0  0  0
 11 13  1  0  0  0  0
 13 14  2  0  0  0  0
 13 15  1  0  0  0  0
M  END
> <MOL_ID>
91

>  <Name_of_compounds>
(S)-(+)-ibuprofen

>  <Activity_Profiles>
0 0 0 0 0

> <INITIAL_ID>
1783

> <SUM_activity>
0

$$$$
1782
  MOE2007           2D
File : EDCHEMS.MOL from EdChemS
 23 25  0  0  0  0  0  0  0  0999 V2000
    4.6880   -2.8920    0.0000 C   0  0  0  0  0  0  0  0  0  0  0  0
    3.3550   -3.6670    0.0000 N   0  0  0  0  0  0  0  0  0  0  0  0
    3.3550   -2.8920    0.0000 C   0  0  0  0  0  0  0  0  0  0  0  0
    2.6670   -2.5270    0.0000 C   0  0  0  0  0  0  0  0  0  0  0  0
    5.3330   -2.5270    0.0000 C   0  0  0  0  0  0  0  0  0  0  0  0
    5.3330   -4.0320    0.0000 C   0  0  0  0  0  0  0  0  0  0  0  0
    6.0000   -3.6670    0.0000 C   0  0  0  0  0  0  0  0  0  0  0  0
    4.6880   -3.6670    0.0000 C   0  0  0  0  0  0  0  0  0  0  0  0
    4.0210   -4.0320    0.0000 S   0  0  0  0  0  0  0  0  0  0  0  0
    4.7740   -4.5270    0.0000 O   0  0  0  0  0  0  0  0  0  0  0  0
    3.6770   -4.6340    0.0000 O   0  0  0  0  0  0  0  0  0  0  0  0
    6.0000   -2.8920    0.0000 C   0  0  0  0  0  0  0  0  0  0  0  0
    4.0210   -2.5270    0.0000 C   0  0  0  0  0  0  0  0  0  0  0  0
    4.1290   -1.7310    0.0000 O   0  0  0  0  0  0  0  0  0  0  0  0
    2.6880   -4.0540    0.0000 C   0  0  0  0  0  0  0  0  0  0  0  0
    2.6670   -1.7530    0.0000 O   0  0  0  0  0  0  0  0  0  0  0  0
    2.0000   -2.9140    0.0000 N   0  0  0  0  0  0  0  0  0  0  0  0
    1.3330   -2.5270    0.0000 C   0  0  0  0  0  0  0  0  0  0  0  0
    1.3330   -1.7530    0.0000 C   0  0  0  0  0  0  0  0  0  0  0  0
    0.6670   -2.9140    0.0000 N   0  0  0  0  0  0  0  0  0  0  0  0
    0.0000   -2.5270    0.0000 C   0  0  0  0  0  0  0  0  0  0  0  0
    0.0000   -1.7530    0.0000 C   0  0  0  0  0  0  0  0  0  0  0  0
    0.6670   -1.3660    0.0000 C   0  0  0  0  0  0  0  0  0  0  0  0
  1  5  1  0  0  0  0
  1  8  2  0  0  0  0
  1 13  1  0  0  0  0
  2  3  1  0  0  0  0
  2  9  1  0  0  0  0
  2 15  1  0  0  0  0
  3  4  2  0  0  0  0
  3 13  1  0  0  0  0
  4 16  1  0  0  0  0
  4 17  1  0  0  0  0
  5 12  2  0  0  0  0
  6  7  2  0  0  0  0
  6  8  1  0  0  0  0
  7 12  1  0  0  0  0
  8  9  1  0  0  0  0
  9 10  2  0  0  0  0
  9 11  2  0  0  0  0
 13 14  2  0  0  0  0
 17 18  1  0  0  0  0
 18 19  1  0  0  0  0
 18 20  2  0  0  0  0
 19 23  2  0  0  0  0
 20 21  1  0  0  0  0
 21 22  2  0  0  0  0
 22 23  1  0  0  0  0
M  END
> <MOL_ID>
90

>  <Name_of_compounds>
Piroxicam

>  <Activity_Profiles>
0 0 0 0 0

> <INITIAL_ID>
1782

> <SUM_activity>
0

$$$$
1784
  MOE2007           2D

 15 15  0  0  1  0  0  0  0  0999 V2000
   -0.0950    3.0250    0.0000 C   0  0  0  0  0  0  0  0  0  0  0  0
   -0.0950    2.2000    0.0000 C   0  0  0  0  0  0  0  0  0  0  0  0
   -0.8100    1.7880    0.0000 C   0  0  0  0  0  0  0  0  0  0  0  0
    0.6190    1.7880    0.0000 C   0  0  0  0  0  0  0  0  0  0  0  0
    0.6190    0.9620    0.0000 C   0  0  0  0  0  0  0  0  0  0  0  0
    1.3340    0.5500    0.0000 C   0  0  0  0  0  0  0  0  0  0  0  0
    1.3340   -0.2750    0.0000 C   0  0  0  0  0  0  0  0  0  0  0  0
    0.6190   -0.6880    0.0000 C   0  0  0  0  0  0  0  0  0  0  0  0
   -0.0950   -0.2750    0.0000 C   0  0  0  0  0  0  0  0  0  0  0  0
   -0.0950    0.5500    0.0000 C   0  0  0  0  0  0  0  0  0  0  0  0
    0.6190   -1.5120    0.0000 C   0  0  3  0  0  0  0  0  0  0  0  0
   -0.0950   -1.9250    0.0000 C   0  0  0  0  0  0  0  0  0  0  0  0
    1.3340   -1.9250    0.0000 C   0  0  0  0  0  0  0  0  0  0  0  0
    2.0480   -1.5120    0.0000 O   0  0  0  0  0  0  0  0  0  0  0  0
    1.3340   -2.7500    0.0000 O   0  0  0  0  0  0  0  0  0  0  0  0
  1  2  1  0  0  0  0
  2  3  1  0  0  0  0
  2  4  1  0  0  0  0
  4  5  1  0  0  0  0
  5  6  1  0  0  0  0
  5 10  2  0  0  0  0
  6  7  2  0  0  0  0
  7  8  1  0  0  0  0
  8  9  2  0  0  0  0
  8 11  1  0  0  0  0
  9 10  1  0  0  0  0
 11 12  1  0  0  0  0
 11 13  1  0  0  0  0
 13 14  2  0  0  0  0
 13 15  1  0  0  0  0
M  END
> <MOL_ID>
92

>  <Name_of_compounds>
ibuprofen

>  <Activity_Profiles>
0 0 0 0 0

> <INITIAL_ID>
1784

> <SUM_activity>
0

$$$$
1780
  MOE2007           2D

 13 13  0  0  0  0  0  0  0  0999 V2000
    1.0990    5.0140    0.0000 C   0  0  0  0  0  0  0  0  0  0  0  0
    1.0990    4.1880    0.0000 C   0  0  0  0  0  0  0  0  0  0  0  0
    1.8140    3.7760    0.0000 O   0  0  0  0  0  0  0  0  0  0  0  0
    0.3850    3.7760    0.0000 O   0  0  0  0  0  0  0  0  0  0  0  0
    0.3850    2.9510    0.0000 C   0  0  0  0  0  0  0  0  0  0  0  0
    1.0990    2.5380    0.0000 C   0  0  0  0  0  0  0  0  0  0  0  0
    1.0990    1.7140    0.0000 C   0  0  0  0  0  0  0  0  0  0  0  0
    0.3850    1.3010    0.0000 C   0  0  0  0  0  0  0  0  0  0  0  0
   -0.3300    1.7140    0.0000 C   0  0  0  0  0  0  0  0  0  0  0  0
   -0.3300    2.5380    0.0000 C   0  0  0  0  0  0  0  0  0  0  0  0
   -1.0440    2.9510    0.0000 C   0  0  0  0  0  0  0  0  0  0  0  0
   -1.0440    3.7760    0.0000 O   0  0  0  0  0  0  0  0  0  0  0  0
   -1.7590    2.5380    0.0000 O   0  0  0  0  0  0  0  0  0  0  0  0
  1  2  1  0  0  0  0
  2  3  2  0  0  0  0
  2  4  1  0  0  0  0
  4  5  1  0  0  0  0
  5  6  1  0  0  0  0
  5 10  2  0  0  0  0
  6  7  2  0  0  0  0
  7  8  1  0  0  0  0
  8  9  2  0  0  0  0
  9 10  1  0  0  0  0
 10 11  1  0  0  0  0
 11 12  2  0  0  0  0
 11 13  1  0  0  0  0
M  END
> <MOL_ID>
88

>  <Name_of_compounds>
Acetylsalicylic acid

>  <Activity_Profiles>
0 0 0 0 0

> <INITIAL_ID>
1780

> <SUM_activity>
0

$$$$
1781
  MOE2007           2D
File : EDCHEMS.MOL from EdChemS
 21 22  0  0  0  0  0  0  0  0999 V2000
    1.3490   -0.0960    0.0000 C   0  0  0  0  0  0  0  0  0  0  0  0
    0.8530   -0.9500    0.0000 S   0  0  0  0  0  0  0  0  0  0  0  0
    0.0000   -0.4540    0.0000 O   0  0  0  0  0  0  0  0  0  0  0  0
    0.3580   -1.8030    0.0000 O   0  0  0  0  0  0  0  0  0  0  0  0
    1.7060   -1.4450    0.0000 N   0  0  0  0  0  0  0  0  0  0  0  0
    1.7060   -2.4360    0.0000 C   0  0  0  0  0  0  0  0  0  0  0  0
    2.5600   -2.9310    0.0000 C   0  0  0  0  0  0  0  0  0  0  0  0
    2.5600   -3.9220    0.0000 C   0  0  0  0  0  0  0  0  0  0  0  0
    1.7060   -4.4170    0.0000 C   0  0  0  0  0  0  0  0  0  0  0  0
    0.8530   -3.9220    0.0000 C   0  0  0  0  0  0  0  0  0  0  0  0
    0.8530   -2.9310    0.0000 C   0  0  0  0  0  0  0  0  0  0  0  0
    1.7060   -5.4080    0.0000 N   0  3  0  0  0  0  0  0  0  0  0  0
    0.8530   -5.9040    0.0000 O   0  5  0  0  0  0  0  0  0  0  0  0
    2.5600   -5.9040    0.0000 O   0  0  0  0  0  0  0  0  0  0  0  0
    3.4400   -2.4360    0.0000 O   0  0  0  0  0  0  0  0  0  0  0  0
    4.2940   -2.9310    0.0000 C   0  0  0  0  0  0  0  0  0  0  0  0
    5.1470   -2.4360    0.0000 C   0  0  0  0  0  0  0  0  0  0  0  0
    6.0000   -2.9310    0.0000 C   0  0  0  0  0  0  0  0  0  0  0  0
    6.0000   -3.9220    0.0000 C   0  0  0  0  0  0  0  0  0  0  0  0
    5.1470   -4.4170    0.0000 C   0  0  0  0  0  0  0  0  0  0  0  0
    4.2940   -3.9220    0.0000 C   0  0  0  0  0  0  0  0  0  0  0  0
  1  2  1  0  0  0  0
  2  3  2  0  0  0  0
  2  4  2  0  0  0  0
  2  5  1  0  0  0  0
  5  6  1  0  0  0  0
  6  7  1  0  0  0  0
  6 11  2  0  0  0  0
  7  8  2  0  0  0  0
  7 15  1  0  0  0  0
  8  9  1  0  0  0  0
  9 10  2  0  0  0  0
  9 12  1  0  0  0  0
 10 11  1  0  0  0  0
 12 13  1  0  0  0  0
 12 14  2  0  0  0  0
 15 16  1  0  0  0  0
 16 17  1  0  0  0  0
 16 21  2  0  0  0  0
 17 18  2  0  0  0  0
 18 19  1  0  0  0  0
 19 20  2  0  0  0  0
 20 21  1  0  0  0  0
M  CHG  1  12   1
M  CHG  1  13  -1
M  END
> <MOL_ID>
89

>  <Name_of_compounds>
nimesulide

>  <Activity_Profiles>
0 0 0 0 0

> <INITIAL_ID>
1781

> <SUM_activity>
0

$$$$
542
  MOE2007           2D

 18 19  0  0  1  0  0  0  0  0999 V2000
   -1.7510   -3.9870    0.0000 C   0  0  0  0  0  0  0  0  0  0  0  0
   -1.0360   -4.3990    0.0000 C   0  0  0  0  0  0  0  0  0  0  0  0
   -1.0360   -5.2240    0.0000 C   0  0  0  0  0  0  0  0  0  0  0  0
   -0.3220   -3.9870    0.0000 C   0  0  0  0  0  0  0  0  0  0  0  0
    0.3930   -4.3990    0.0000 C   0  0  3  0  0  0  0  0  0  0  0  0
    0.3930   -5.2240    0.0000 C   0  0  0  0  0  0  0  0  0  0  0  0
    1.2180   -5.2240    0.0000 C   0  0  0  0  0  0  0  0  0  0  0  0
    1.6300   -4.5100    0.0000 C   0  0  0  0  0  0  0  0  0  0  0  0
    2.4550   -4.5100    0.0000 C   0  0  0  0  0  0  0  0  0  0  0  0
    2.8680   -5.2240    0.0000 C   0  0  0  0  0  0  0  0  0  0  0  0
    3.6930   -5.2240    0.0000 Cl  0  0  0  0  0  0  0  0  0  0  0  0
    2.4550   -5.9390    0.0000 C   0  0  0  0  0  0  0  0  0  0  0  0
    1.6300   -5.9390    0.0000 C   0  0  0  0  0  0  0  0  0  0  0  0
   -0.4320   -5.2240    0.0000 C   0  0  0  0  0  0  0  0  0  0  0  0
   -0.4320   -6.0490    0.0000 C   0  0  0  0  0  0  0  0  0  0  0  0
    0.3930   -6.0490    0.0000 C   0  0  0  0  0  0  0  0  0  0  0  0
    1.1070   -3.9870    0.0000 N   0  0  0  0  0  0  0  0  0  0  0  0
    1.1070   -3.1620    0.0000 C   0  0  0  0  0  0  0  0  0  0  0  0
  1  2  1  0  0  0  0
  2  3  1  0  0  0  0
  2  4  1  0  0  0  0
  4  5  1  0  0  0  0
  5  6  1  0  0  0  0
  5 17  1  0  0  0  0
  6  7  1  0  0  0  0
  6 14  1  0  0  0  0
  6 16  1  0  0  0  0
  7  8  1  0  0  0  0
  7 13  2  0  0  0  0
  8  9  2  0  0  0  0
  9 10  1  0  0  0  0
 10 11  1  0  0  0  0
 10 12  2  0  0  0  0
 12 13  1  0  0  0  0
 14 15  1  0  0  0  0
 15 16  1  0  0  0  0
 17 18  1  0  0  0  0
M  END
> <MOL_ID>
33

>  <Name_of_compounds>
cyclobutanemethanamine, N-methyl-1-(4-chloropheny;)-alph-(2-methylpropyl)

>  <Activity_Profiles>
0 0 0 0 0

> <INITIAL_ID>
542

> <SUM_activity>
0

$$$$
4568
  MOE2007           2D

 20 20  0  0  1  0  0  0  0  0999 V2000
   -2.4290    3.6300    0.0000 C   0  0  0  0  0  0  0  0  0  0  0  0
   -1.7150    3.2180    0.0000 C   0  0  0  0  0  0  0  0  0  0  0  0
   -1.0000    3.6300    0.0000 C   0  0  0  0  0  0  0  0  0  0  0  0
   -1.0000    4.4550    0.0000 C   0  0  0  0  0  0  0  0  0  0  0  0
   -0.2860    4.8680    0.0000 C   0  0  0  0  0  0  0  0  0  0  0  0
   -0.2860    3.2180    0.0000 O   0  0  0  0  0  0  0  0  0  0  0  0
   -0.2860    2.3920    0.0000 C   0  0  3  0  0  0  0  0  0  0  0  0
    0.4290    1.9800    0.0000 C   0  0  0  0  0  0  0  0  0  0  0  0
    0.4290    1.1550    0.0000 C   0  0  0  0  0  0  0  0  0  0  0  0
   -0.2860    0.7420    0.0000 C   0  0  0  0  0  0  0  0  0  0  0  0
   -1.0000    1.1550    0.0000 C   0  0  3  0  0  0  0  0  0  0  0  0
   -1.0000    1.9800    0.0000 C   0  0  3  0  0  0  0  0  0  0  0  0
   -1.7150    2.3920    0.0000 N   0  0  0  0  0  0  0  0  0  0  0  0
   -2.4290    1.9800    0.0000 C   0  0  0  0  0  0  0  0  0  0  0  0
   -2.4290    1.1550    0.0000 O   0  0  0  0  0  0  0  0  0  0  0  0
   -3.1440    2.3920    0.0000 C   0  0  0  0  0  0  0  0  0  0  0  0
   -1.7150    0.7420    0.0000 N   0  0  0  0  0  0  0  0  0  0  0  0
    1.1430    0.7420    0.0000 C   0  0  0  0  0  0  0  0  0  0  0  0
    1.1430   -0.0820    0.0000 O   0  0  0  0  0  0  0  0  0  0  0  0
    1.8580    1.1550    0.0000 O   0  0  0  0  0  0  0  0  0  0  0  0
  1  2  1  0  0  0  0
  2  3  1  0  0  0  0
  3  4  1  0  0  0  0
  3  6  1  0  0  0  0
  4  5  1  0  0  0  0
  6  7  1  0  0  0  0
  7  8  1  0  0  0  0
  7 12  1  0  0  0  0
  8  9  2  0  0  0  0
  9 10  1  0  0  0  0
  9 18  1  0  0  0  0
 10 11  1  0  0  0  0
 11 12  1  0  0  0  0
 11 17  1  0  0  0  0
 12 13  1  0  0  0  0
 13 14  1  0  0  0  0
 14 15  2  0  0  0  0
 14 16  1  0  0  0  0
 18 19  2  0  0  0  0
 18 20  1  0  0  0  0
M  END
> <MOL_ID>
138

>  <Name_of_compounds>
Oseltamivir Acid

>  <Activity_Profiles>
0 0 0 0 0

> <INITIAL_ID>
4568

> <SUM_activity>
0

$$$$
4567
  MOE2007           2D

 22 22  0  0  1  0  0  0  0  0999 V2000
   -1.8840    3.6380    0.0000 C   0  0  0  0  0  0  0  0  0  0  0  0
   -1.1690    3.2250    0.0000 C   0  0  0  0  0  0  0  0  0  0  0  0
   -0.4550    3.6380    0.0000 C   0  0  0  0  0  0  0  0  0  0  0  0
   -0.4550    4.4620    0.0000 C   0  0  0  0  0  0  0  0  0  0  0  0
    0.2600    4.8750    0.0000 C   0  0  0  0  0  0  0  0  0  0  0  0
    0.2600    3.2250    0.0000 O   0  0  0  0  0  0  0  0  0  0  0  0
    0.2600    2.4000    0.0000 C   0  0  3  0  0  0  0  0  0  0  0  0
    0.9740    1.9880    0.0000 C   0  0  0  0  0  0  0  0  0  0  0  0
    0.9740    1.1620    0.0000 C   0  0  0  0  0  0  0  0  0  0  0  0
    0.2600    0.7500    0.0000 C   0  0  0  0  0  0  0  0  0  0  0  0
   -0.4550    1.1620    0.0000 C   0  0  3  0  0  0  0  0  0  0  0  0
   -0.4550    1.9880    0.0000 C   0  0  3  0  0  0  0  0  0  0  0  0
   -1.1690    2.4000    0.0000 N   0  0  0  0  0  0  0  0  0  0  0  0
   -1.8840    1.9880    0.0000 C   0  0  0  0  0  0  0  0  0  0  0  0
   -1.8840    1.1620    0.0000 O   0  0  0  0  0  0  0  0  0  0  0  0
   -2.5980    2.4000    0.0000 C   0  0  0  0  0  0  0  0  0  0  0  0
   -1.1690    0.7500    0.0000 N   0  0  0  0  0  0  0  0  0  0  0  0
    1.6890    0.7500    0.0000 C   0  0  0  0  0  0  0  0  0  0  0  0
    1.6890   -0.0750    0.0000 O   0  0  0  0  0  0  0  0  0  0  0  0
    2.4030    1.1620    0.0000 O   0  0  0  0  0  0  0  0  0  0  0  0
    2.4030    1.9880    0.0000 C   0  0  0  0  0  0  0  0  0  0  0  0
    3.1180    2.4000    0.0000 C   0  0  0  0  0  0  0  0  0  0  0  0
  1  2  1  0  0  0  0
  2  3  1  0  0  0  0
  3  4  1  0  0  0  0
  3  6  1  0  0  0  0
  4  5  1  0  0  0  0
  6  7  1  0  0  0  0
  7  8  1  0  0  0  0
  7 12  1  0  0  0  0
  8  9  2  0  0  0  0
  9 10  1  0  0  0  0
  9 18  1  0  0  0  0
 10 11  1  0  0  0  0
 11 12  1  0  0  0  0
 11 17  1  0  0  0  0
 12 13  1  0  0  0  0
 13 14  1  0  0  0  0
 14 15  2  0  0  0  0
 14 16  1  0  0  0  0
 18 19  2  0  0  0  0
 18 20  1  0  0  0  0
 20 21  1  0  0  0  0
 21 22  1  0  0  0  0
M  END
> <MOL_ID>
137

>  <Name_of_compounds>
Tamiflu

>  <Activity_Profiles>
0 0 0 0 0

> <INITIAL_ID>
4567

> <SUM_activity>
0

$$$$
541
  MOE2007           2D

 17 18  0  0  1  0  0  0  0  0999 V2000
   -0.6800    0.0420    0.0000 C   0  0  0  0  0  0  0  0  0  0  0  0
    0.1160    0.2560    0.0000 C   0  0  0  0  0  0  0  0  0  0  0  0
    0.7000   -0.3280    0.0000 C   0  0  0  0  0  0  0  0  0  0  0  0
    1.4970   -0.1140    0.0000 C   0  0  3  0  0  0  0  0  0  0  0  0
    1.7100    0.6830    0.0000 N   0  0  0  0  0  0  0  0  0  0  0  0
    2.0800   -0.6980    0.0000 C   0  0  0  0  0  0  0  0  0  0  0  0
    2.6630   -1.2810    0.0000 C   0  0  0  0  0  0  0  0  0  0  0  0
    2.0800   -1.8640    0.0000 C   0  0  0  0  0  0  0  0  0  0  0  0
    1.4970   -1.2810    0.0000 C   0  0  0  0  0  0  0  0  0  0  0  0
    2.6630   -0.1140    0.0000 C   0  0  0  0  0  0  0  0  0  0  0  0
    2.4500    0.6830    0.0000 C   0  0  0  0  0  0  0  0  0  0  0  0
    3.0330    1.2660    0.0000 C   0  0  0  0  0  0  0  0  0  0  0  0
    3.8300    1.0530    0.0000 C   0  0  0  0  0  0  0  0  0  0  0  0
    4.0440    0.2560    0.0000 C   0  0  0  0  0  0  0  0  0  0  0  0
    3.4600   -0.3280    0.0000 C   0  0  0  0  0  0  0  0  0  0  0  0
    4.4130    1.6360    0.0000 Cl  0  0  0  0  0  0  0  0  0  0  0  0
    0.3300    1.0530    0.0000 C   0  0  0  0  0  0  0  0  0  0  0  0
  1  2  1  0  0  0  0
  2  3  1  0  0  0  0
  2 17  1  0  0  0  0
  3  4  1  0  0  0  0
  4  5  1  0  0  0  0
  4  6  1  0  0  0  0
  6  7  1  0  0  0  0
  6  9  1  0  0  0  0
  6 10  1  0  0  0  0
  7  8  1  0  0  0  0
  8  9  1  0  0  0  0
 10 11  1  0  0  0  0
 10 15  2  0  0  0  0
 11 12  2  0  0  0  0
 12 13  1  0  0  0  0
 13 14  2  0  0  0  0
 13 16  1  0  0  0  0
 14 15  1  0  0  0  0
M  END
> <MOL_ID>
32

>  <Name_of_compounds>
cyclobutanemethanamine, 1-(4-chloropheny;)-alph-(2-methylpropyl)

>  <Activity_Profiles>
0 0 0 0 0

> <INITIAL_ID>
541

> <SUM_activity>
0

$$$$
2667
  MOE2007           2D

 16 17  0  0  0  0  0  0  0  0999 V2000
    2.0210    9.8490    0.0000 C   0  0  0  0  0  0  0  0  0  0  0  0
    2.0210    9.0240    0.0000 O   0  0  0  0  0  0  0  0  0  0  0  0
    1.3070    8.6110    0.0000 C   0  0  0  0  0  0  0  0  0  0  0  0
    1.3070    7.7860    0.0000 C   0  0  0  0  0  0  0  0  0  0  0  0
    0.5920    7.3740    0.0000 C   0  0  0  0  0  0  0  0  0  0  0  0
   -0.1220    7.7860    0.0000 C   0  0  0  0  0  0  0  0  0  0  0  0
   -0.1220    8.6110    0.0000 C   0  0  0  0  0  0  0  0  0  0  0  0
    0.5920    9.0240    0.0000 C   0  0  0  0  0  0  0  0  0  0  0  0
   -0.8370    7.3740    0.0000 C   0  0  0  0  0  0  0  0  0  0  0  0
   -1.5510    7.7860    0.0000 O   0  0  0  0  0  0  0  0  0  0  0  0
   -0.8370    6.5490    0.0000 N   0  0  0  0  0  0  0  0  0  0  0  0
   -0.1690    6.0640    0.0000 C   0  0  0  0  0  0  0  0  0  0  0  0
   -0.4240    5.2790    0.0000 C   0  0  0  0  0  0  0  0  0  0  0  0
   -1.2490    5.2790    0.0000 C   0  0  0  0  0  0  0  0  0  0  0  0
   -1.5040    6.0640    0.0000 C   0  0  0  0  0  0  0  0  0  0  0  0
   -2.2890    6.3190    0.0000 O   0  0  0  0  0  0  0  0  0  0  0  0
  1  2  1  0  0  0  0
  2  3  1  0  0  0  0
  3  4  1  0  0  0  0
  3  8  2  0  0  0  0
  4  5  2  0  0  0  0
  5  6  1  0  0  0  0
  6  7  2  0  0  0  0
  6  9  1  0  0  0  0
  7  8  1  0  0  0  0
  9 10  2  0  0  0  0
  9 11  1  0  0  0  0
 11 12  1  0  0  0  0
 11 15  1  0  0  0  0
 12 13  1  0  0  0  0
 13 14  1  0  0  0  0
 14 15  1  0  0  0  0
 15 16  2  0  0  0  0
M  END
> <MOL_ID>
127

>  <Name_of_compounds>
aniracetam

>  <Activity_Profiles>
0 0 0 0 0

> <INITIAL_ID>
2667

> <SUM_activity>
0

$$$$
586
  MOE2007           2D

 22 24  0  0  1  0  0  0  0  0999 V2000
    2.1760   -3.0720    0.0000 C   0  0  0  0  0  0  0  0  0  0  0  0
    2.4980   -2.2790    0.0000 C   0  0  0  0  0  0  0  0  0  0  0  0
    2.5840   -1.4590    0.0000 O   0  0  0  0  0  0  0  0  0  0  0  0
    3.3910   -1.2870    0.0000 C   0  0  3  0  0  0  0  0  0  0  0  0
    3.8030   -0.5730    0.0000 C   0  0  0  0  0  0  0  0  0  0  0  0
    4.6280   -0.5730    0.0000 O   0  0  0  0  0  0  0  0  0  0  0  0
    5.0410   -1.2870    0.0000 C   0  0  3  0  0  0  0  0  0  0  0  0
    4.6280   -2.0020    0.0000 C   0  0  3  0  0  0  0  0  0  0  0  0
    3.8030   -2.0020    0.0000 C   0  0  3  0  0  0  0  0  0  0  0  0
    3.2510   -2.6150    0.0000 O   0  0  0  0  0  0  0  0  0  0  0  0
    5.1800   -2.6150    0.0000 O   0  0  0  0  0  0  0  0  0  0  0  0
    5.9340   -2.2790    0.0000 C   0  0  0  0  0  0  0  0  0  0  0  0
    5.8480   -1.4590    0.0000 O   0  0  0  0  0  0  0  0  0  0  0  0
    6.2960   -3.0640    0.0000 C   0  0  0  0  0  0  0  0  0  0  0  0
    6.7790   -2.1160    0.0000 C   0  0  0  0  0  0  0  0  0  0  0  0
    4.2650   -1.6340    0.0000 C   0  0  0  0  0  0  0  0  0  0  0  0
    4.2730   -2.6090    0.0000 O   0  0  0  0  0  0  0  0  0  0  0  0
    4.3540   -3.4680    0.0000 S   0  0  0  0  0  0  0  0  0  0  0  0
    3.5330   -3.5450    0.0000 O   0  0  0  0  0  0  0  0  0  0  0  0
    5.1750   -3.3900    0.0000 O   0  0  0  0  0  0  0  0  0  0  0  0
    4.4320   -4.2890    0.0000 N   0  0  0  0  0  0  0  0  0  0  0  0
    1.6330   -2.1120    0.0000 C   0  0  0  0  0  0  0  0  0  0  0  0
  1  2  1  0  0  0  0
  2  3  1  0  0  0  0
  2 10  1  0  0  0  0
  2 22  1  0  0  0  0
  3  4  1  0  0  0  0
  4  5  1  0  0  0  0
  4  9  1  0  0  0  0
  5  6  1  0  0  0  0
  6  7  1  0  0  0  0
  7  8  1  0  0  0  0
  7 13  1  0  0  0  0
  7 16  1  0  0  0  0
  8  9  1  0  0  0  0
  8 11  1  0  0  0  0
  9 10  1  0  0  0  0
 11 12  1  0  0  0  0
 12 13  1  0  0  0  0
 12 14  1  0  0  0  0
 12 15  1  0  0  0  0
 16 17  1  0  0  0  0
 17 18  1  0  0  0  0
 18 19  2  0  0  0  0
 18 20  2  0  0  0  0
 18 21  1  0  0  0  0
M  END
> <MOL_ID>
36

>  <Name_of_compounds>
Topiramate

>  <Activity_Profiles>
0 0 0 0 0

> <INITIAL_ID>
586

> <SUM_activity>
0

$$$$
584
  MOE2007           2D

 16 17  0  0  0  0  0  0  0  0999 V2000
    0.1790   -4.3310    0.0000 C   0  0  0  0  0  0  0  0  0  0  0  0
   -0.5360   -4.7440    0.0000 C   0  0  0  0  0  0  0  0  0  0  0  0
   -1.2500   -4.3310    0.0000 C   0  0  0  0  0  0  0  0  0  0  0  0
   -1.2500   -3.5060    0.0000 C   0  0  0  0  0  0  0  0  0  0  0  0
   -0.5360   -3.0940    0.0000 C   0  0  0  0  0  0  0  0  0  0  0  0
    0.1790   -3.5060    0.0000 C   0  0  0  0  0  0  0  0  0  0  0  0
   -0.5360   -2.2690    0.0000 Cl  0  0  0  0  0  0  0  0  0  0  0  0
   -1.9650   -3.0940    0.0000 Cl  0  0  0  0  0  0  0  0  0  0  0  0
   -1.9650   -4.7440    0.0000 C   0  0  0  0  0  0  0  0  0  0  0  0
   -1.9650   -5.5690    0.0000 C   0  0  0  0  0  0  0  0  0  0  0  0
   -2.6790   -5.9810    0.0000 N   0  0  0  0  0  0  0  0  0  0  0  0
   -3.3940   -5.5690    0.0000 C   0  0  0  0  0  0  0  0  0  0  0  0
   -3.3940   -4.7440    0.0000 N   0  0  0  0  0  0  0  0  0  0  0  0
   -2.6790   -4.3310    0.0000 N   0  0  0  0  0  0  0  0  0  0  0  0
   -4.1080   -5.9810    0.0000 N   0  0  0  0  0  0  0  0  0  0  0  0
   -1.2500   -5.9810    0.0000 N   0  0  0  0  0  0  0  0  0  0  0  0
  1  2  1  0  0  0  0
  1  6  2  0  0  0  0
  2  3  2  0  0  0  0
  3  4  1  0  0  0  0
  3  9  1  0  0  0  0
  4  5  2  0  0  0  0
  4  8  1  0  0  0  0
  5  6  1  0  0  0  0
  5  7  1  0  0  0  0
  9 10  1  0  0  0  0
  9 14  2  0  0  0  0
 10 11  2  0  0  0  0
 10 16  1  0  0  0  0
 11 12  1  0  0  0  0
 12 13  2  0  0  0  0
 12 15  1  0  0  0  0
 13 14  1  0  0  0  0
M  END
> <MOL_ID>
34

>  <Name_of_compounds>
lamotrigine

>  <Activity_Profiles>
0 0 0 0 0

> <INITIAL_ID>
584

> <SUM_activity>
0

$$$$
585
  MOE2007           2D

 10  9  0  0  0  0  0  0  0  0999 V2000
    4.5100   -2.2480    0.0000 C   0  0  0  0  0  0  0  0  0  0  0  0
    5.2240   -1.8360    0.0000 C   0  0  0  0  0  0  0  0  0  0  0  0
    5.9380   -2.2480    0.0000 C   0  0  0  0  0  0  0  0  0  0  0  0
    6.6530   -1.8360    0.0000 C   0  0  0  0  0  0  0  0  0  0  0  0
    7.3670   -2.2480    0.0000 C   0  0  0  0  0  0  0  0  0  0  0  0
    8.0820   -1.8360    0.0000 C   0  0  0  0  0  0  0  0  0  0  0  0
    8.7960   -2.2480    0.0000 C   0  0  0  0  0  0  0  0  0  0  0  0
    6.6530   -1.0100    0.0000 C   0  0  0  0  0  0  0  0  0  0  0  0
    7.3670   -0.5980    0.0000 O   0  0  0  0  0  0  0  0  0  0  0  0
    5.9380   -0.5980    0.0000 O   0  0  0  0  0  0  0  0  0  0  0  0
  1  2  1  0  0  0  0
  2  3  1  0  0  0  0
  3  4  1  0  0  0  0
  4  5  1  0  0  0  0
  4  8  1  0  0  0  0
  5  6  1  0  0  0  0
  6  7  1  0  0  0  0
  8  9  2  0  0  0  0
  8 10  1  0  0  0  0
M  END
> <MOL_ID>
35

>  <Name_of_compounds>
Valproate

>  <Activity_Profiles>
0 0 0 0 0

> <INITIAL_ID>
585

> <SUM_activity>
0

$$$$
2360
  MOE2007           2D

 28 32  0  0  1  0  0  0  0  0999 V2000
    6.9600   -0.9710    0.0000 C   0  0  0  0  0  0  0  0  0  0  0  0
    7.1260   -0.1140    0.0000 C   0  0  3  0  0  0  0  0  0  0  0  0
    7.6580   -0.7450    0.0000 C   0  0  0  0  0  0  0  0  0  0  0  0
    8.4700   -0.6000    0.0000 C   0  0  0  0  0  0  0  0  0  0  0  0
    8.7500    0.1760    0.0000 C   0  0  3  0  0  0  0  0  0  0  0  0
    8.2180    0.8070    0.0000 C   0  0  0  0  0  0  0  0  0  0  0  0
    7.4060    0.6620    0.0000 C   0  0  3  0  0  0  0  0  0  0  0  0
    6.8740    1.2920    0.0000 C   0  0  0  0  0  0  0  0  0  0  0  0
    6.0620    1.1470    0.0000 C   0  0  0  0  0  0  0  0  0  0  0  0
    5.7820    0.3710    0.0000 C   0  0  3  0  0  0  0  0  0  0  0  0
    6.3140   -0.2600    0.0000 C   0  0  3  0  0  0  0  0  0  0  0  0
    6.0340   -1.0360    0.0000 C   0  0  0  0  0  0  0  0  0  0  0  0
    5.2210   -1.1810    0.0000 C   0  0  0  0  0  0  0  0  0  0  0  0
    4.6900   -0.5500    0.0000 C   0  0  3  0  0  0  0  0  0  0  0  0
    4.9700    0.2260    0.0000 C   0  0  3  0  0  0  0  0  0  0  0  0
    4.3180    0.7320    0.0000 C   0  0  0  0  0  0  0  0  0  0  0  0
    3.6360    0.2690    0.0000 C   0  0  3  0  0  0  0  0  0  0  0  0
    3.8650   -0.5230    0.0000 C   0  0  3  0  0  0  0  0  0  0  0  0
    3.3590   -1.1740    0.0000 C   0  0  0  0  0  0  0  0  0  0  0  0
    3.5880   -1.9670    0.0000 C   0  0  0  0  0  0  0  0  0  0  0  0
    2.9050   -2.4300    0.0000 C   0  0  0  0  0  0  0  0  0  0  0  0
    2.8780   -3.2550    0.0000 O   0  0  0  0  0  0  0  0  0  0  0  0
    2.2540   -1.9240    0.0000 O   0  0  0  0  0  0  0  0  0  0  0  0
    2.5340   -1.1480    0.0000 C   0  0  0  0  0  0  0  0  0  0  0  0
    2.8100    0.5510    0.0000 O   0  0  0  0  0  0  0  0  0  0  0  0
    5.0250    1.1070    0.0000 O   0  0  0  0  0  0  0  0  0  0  0  0
    4.2170    0.0920    0.0000 C   0  0  0  0  0  0  0  0  0  0  0  0
    9.6060    0.3290    0.0000 O   0  0  0  0  0  0  0  0  0  0  0  0
  1  2  1  0  0  0  0
  2  3  1  0  0  0  0
  2  7  1  0  0  0  0
  2 11  1  0  0  0  0
  3  4  1  0  0  0  0
  4  5  1  0  0  0  0
  5  6  1  0  0  0  0
  5 28  1  0  0  0  0
  6  7  1  0  0  0  0
  7  8  1  0  0  0  0
  8  9  1  0  0  0  0
  9 10  1  0  0  0  0
 10 11  1  0  0  0  0
 10 15  1  0  0  0  0
 11 12  1  0  0  0  0
 12 13  1  0  0  0  0
 13 14  1  0  0  0  0
 14 15  1  0  0  0  0
 14 18  1  0  0  0  0
 14 27  1  0  0  0  0
 15 16  1  0  0  0  0
 15 26  1  0  0  0  0
 16 17  1  0  0  0  0
 17 18  1  0  0  0  0
 17 25  1  0  0  0  0
 18 19  1  0  0  0  0
 19 20  2  0  0  0  0
 19 24  1  0  0  0  0
 20 21  1  0  0  0  0
 21 22  2  0  0  0  0
 21 23  1  0  0  0  0
 23 24  1  0  0  0  0
M  END
> <MOL_ID>
125

>  <Name_of_compounds>
Gitoxigenin

>  <Activity_Profiles>
0 0 0 0 0

> <INITIAL_ID>
2360

> <SUM_activity>
0

$$$$
128
  MOE2007           2D
File : EDCHEMS.MOL from EdChemS
 22 23  0  0  1  0  0  0  0  0999 V2000
    0.0000   -2.5080    0.0000 C   0  0  0  0  0  0  0  0  0  0  0  0
    5.2180   -3.3400    0.0000 C   0  0  0  0  0  0  0  0  0  0  0  0
    5.2180   -4.2480    0.0000 N   0  0  0  0  0  0  0  0  0  0  0  0
    5.9500   -4.7770    0.0000 C   0  0  0  0  0  0  0  0  0  0  0  0
    5.6720   -5.6600    0.0000 C   0  0  0  0  0  0  0  0  0  0  0  0
    4.7650   -5.6600    0.0000 C   0  0  0  0  0  0  0  0  0  0  0  0
    4.4870   -4.7770    0.0000 C   0  0  3  0  0  0  0  0  0  0  0  0
    3.6300   -4.5000    0.0000 C   0  0  0  0  0  0  0  0  0  0  0  0
    3.4290   -3.6180    0.0000 N   0  0  0  0  0  0  0  0  0  0  0  0
    2.5710   -3.3400    0.0000 C   0  0  0  0  0  0  0  0  0  0  0  0
    1.8910   -3.9450    0.0000 O   0  0  0  0  0  0  0  0  0  0  0  0
    2.3950   -2.4580    0.0000 C   0  0  0  0  0  0  0  0  0  0  0  0
    1.5380   -2.1810    0.0000 C   0  0  0  0  0  0  0  0  0  0  0  0
    1.3360   -1.2730    0.0000 C   0  0  0  0  0  0  0  0  0  0  0  0
    2.0170   -0.6680    0.0000 C   0  0  0  0  0  0  0  0  0  0  0  0
    2.8740   -0.9450    0.0000 C   0  0  0  0  0  0  0  0  0  0  0  0
    3.0760   -1.8530    0.0000 C   0  0  0  0  0  0  0  0  0  0  0  0
    3.9330   -2.1300    0.0000 O   0  0  0  0  0  0  0  0  0  0  0  0
    4.1090   -3.0130    0.0000 C   0  0  0  0  0  0  0  0  0  0  0  0
    3.5550   -0.3400    0.0000 Br  0  0  0  0  0  0  0  0  0  0  0  0
    0.8570   -2.7860    0.0000 O   0  0  0  0  0  0  0  0  0  0  0  0
    6.0000   -2.8870    0.0000 C   0  0  0  0  0  0  0  0  0  0  0  0
  1 21  1  0  0  0  0
  2  3  1  0  0  0  0
  2 22  1  0  0  0  0
  3  4  1  0  0  0  0
  3  7  1  0  0  0  0
  4  5  1  0  0  0  0
  5  6  1  0  0  0  0
  6  7  1  0  0  0  0
  7  8  1  0  0  0  0
  8  9  1  0  0  0  0
  9 10  1  0  0  0  0
 10 11  2  0  0  0  0
 10 12  1  0  0  0  0
 12 13  1  0  0  0  0
 12 17  2  0  0  0  0
 13 14  2  0  0  0  0
 13 21  1  0  0  0  0
 14 15  1  0  0  0  0
 15 16  2  0  0  0  0
 16 17  1  0  0  0  0
 16 20  1  0  0  0  0
 17 18  1  0  0  0  0
 18 19  1  0  0  0  0
M  END
> <MOL_ID>
27

>  <Name_of_compounds>
Remoxipride

>  <Activity_Profiles>
0 0 0 0 0

> <INITIAL_ID>
128

> <SUM_activity>
0

$$$$
2356
  MOE2007           2D

 12 12  0  0  0  0  0  0  0  0999 V2000
   -1.6740    5.7150    0.0000 O   0  0  0  0  0  0  0  0  0  0  0  0
   -0.9600    5.3030    0.0000 C   0  0  0  0  0  0  0  0  0  0  0  0
   -0.2450    5.7150    0.0000 O   0  0  0  0  0  0  0  0  0  0  0  0
   -0.9600    4.4780    0.0000 C   0  0  0  0  0  0  0  0  0  0  0  0
   -0.2450    4.0650    0.0000 C   0  0  0  0  0  0  0  0  0  0  0  0
   -0.2450    3.2400    0.0000 N   0  0  0  0  0  0  0  0  0  0  0  0
    0.4220    2.7550    0.0000 C   0  0  0  0  0  0  0  0  0  0  0  0
    0.1670    1.9710    0.0000 S   0  0  0  0  0  0  0  0  0  0  0  0
   -0.6580    1.9710    0.0000 C   0  0  0  0  0  0  0  0  0  0  0  0
   -0.9130    2.7550    0.0000 C   0  0  0  0  0  0  0  0  0  0  0  0
   -1.6970    3.0100    0.0000 S   0  0  0  0  0  0  0  0  0  0  0  0
    1.2070    3.0100    0.0000 S   0  0  0  0  0  0  0  0  0  0  0  0
  1  2  2  0  0  0  0
  2  3  1  0  0  0  0
  2  4  1  0  0  0  0
  4  5  1  0  0  0  0
  5  6  1  0  0  0  0
  6  7  1  0  0  0  0
  6 10  1  0  0  0  0
  7  8  1  0  0  0  0
  7 12  2  0  0  0  0
  8  9  1  0  0  0  0
  9 10  1  0  0  0  0
 10 11  2  0  0  0  0
M  END
> <MOL_ID>
122

>  <Name_of_compounds>
3-(2,4-dithioxo-1,3-thiazolidin-3-yl)propanoic acid

>  <Activity_Profiles>
0 0 0 0 0

> <INITIAL_ID>
2356

> <SUM_activity>
0

$$$$
2355
  MOE2007           2D

 16 19  0  0  1  0  0  0  0  0999 V2000
    5.3160    1.0480    0.0000 C   0  0  0  0  0  0  0  0  0  0  0  0
    5.7680    0.3580    0.0000 C   0  0  0  0  0  0  0  0  0  0  0  0
    5.3960   -0.3780    0.0000 C   0  0  0  0  0  0  0  0  0  0  0  0
    4.5720   -0.4250    0.0000 N   0  0  0  0  0  0  0  0  0  0  0  0
    4.1200    0.2660    0.0000 C   0  0  3  0  0  0  0  0  0  0  0  0
    4.4920    1.0020    0.0000 C   0  0  0  0  0  0  0  0  0  0  0  0
    3.3760   -0.0920    0.0000 C   0  0  3  0  0  0  0  0  0  0  0  0
    3.7630   -0.8030    0.0000 C   0  0  0  0  0  0  0  0  0  0  0  0
    4.1890   -1.2530    0.0000 C   0  0  3  0  0  0  0  0  0  0  0  0
    3.3960   -1.7230    0.0000 C   0  0  0  0  0  0  0  0  0  0  0  0
    2.6030   -1.3100    0.0000 C   0  0  0  0  0  0  0  0  0  0  0  0
    2.6060   -0.4220    0.0000 C   0  0  0  0  0  0  0  0  0  0  0  0
    2.1280    0.3150    0.0000 C   0  0  0  0  0  0  0  0  0  0  0  0
    2.5950    1.0060    0.0000 C   0  0  0  0  0  0  0  0  0  0  0  0
    2.3290    1.7870    0.0000 O   0  0  0  0  0  0  0  0  0  0  0  0
    3.3660    0.7520    0.0000 O   0  0  0  0  0  0  0  0  0  0  0  0
  1  2  1  0  0  0  0
  1  6  1  0  0  0  0
  2  3  1  0  0  0  0
  3  4  1  0  0  0  0
  4  5  1  0  0  0  0
  4  9  1  0  0  0  0
  5  6  1  0  0  0  0
  5  7  1  0  0  0  0
  7  8  1  0  0  0  0
  7 12  1  0  0  0  0
  7 16  1  0  0  0  0
  8  9  1  0  0  0  0
  9 10  1  0  0  0  0
 10 11  2  0  0  0  0
 11 12  1  0  0  0  0
 12 13  2  0  0  0  0
 13 14  1  0  0  0  0
 14 15  2  0  0  0  0
 14 16  1  0  0  0  0
M  END
> <MOL_ID>
121

>  <Name_of_compounds>
securinine

>  <Activity_Profiles>
0 0 0 0 0

> <INITIAL_ID>
2355

> <SUM_activity>
0

$$$$
381
  MOE2007           2D

 13 13  0  0  1  0  0  0  0  0999 V2000
    0.0000   -2.4750    0.0000 C   0  0  0  0  0  0  0  0  0  0  0  0
    0.0000   -1.6500    0.0000 C   0  0  3  0  0  0  0  0  0  0  0  0
   -0.7140   -1.2380    0.0000 N   0  0  0  0  0  0  0  0  0  0  0  0
   -1.4290   -1.6500    0.0000 C   0  0  0  0  0  0  0  0  0  0  0  0
   -2.1430   -1.2380    0.0000 C   0  0  0  0  0  0  0  0  0  0  0  0
    0.7140   -1.2380    0.0000 C   0  0  0  0  0  0  0  0  0  0  0  0
    0.7140   -0.4120    0.0000 C   0  0  0  0  0  0  0  0  0  0  0  0
    0.0000    0.0000    0.0000 C   0  0  0  0  0  0  0  0  0  0  0  0
    0.0000    0.8250    0.0000 C   0  0  0  0  0  0  0  0  0  0  0  0
    0.7140    1.2380    0.0000 C   0  0  0  0  0  0  0  0  0  0  0  0
    1.4290    0.8250    0.0000 C   0  0  0  0  0  0  0  0  0  0  0  0
    1.4290    0.0000    0.0000 C   0  0  0  0  0  0  0  0  0  0  0  0
    1.4290   -1.6500    0.0000 O   0  0  0  0  0  0  0  0  0  0  0  0
  1  2  1  0  0  0  0
  2  3  1  0  0  0  0
  2  6  1  0  0  0  0
  3  4  1  0  0  0  0
  4  5  1  0  0  0  0
  6  7  1  0  0  0  0
  6 13  2  0  0  0  0
  7  8  1  0  0  0  0
  7 12  2  0  0  0  0
  8  9  2  0  0  0  0
  9 10  1  0  0  0  0
 10 11  2  0  0  0  0
 11 12  1  0  0  0  0
M  END
> <MOL_ID>
30

>  <Name_of_compounds>
2-ethylamino-1-phenyl-propan-1-one

>  <Activity_Profiles>
0 0 0 0 0

> <INITIAL_ID>
381

> <SUM_activity>
0

$$$$
2666
  MOE2007           2D

 10 10  0  0  0  0  0  0  0  0999 V2000
    0.7050   -0.2480    0.0000 C   0  0  0  0  0  0  0  0  0  0  0  0
   -0.1200   -0.2480    0.0000 C   0  0  0  0  0  0  0  0  0  0  0  0
   -0.3750    0.5360    0.0000 C   0  0  0  0  0  0  0  0  0  0  0  0
   -1.1600    0.7910    0.0000 O   0  0  0  0  0  0  0  0  0  0  0  0
    0.2920    1.0210    0.0000 N   0  0  0  0  0  0  0  0  0  0  0  0
    0.9600    0.5360    0.0000 C   0  0  0  0  0  0  0  0  0  0  0  0
    0.2920    1.8460    0.0000 C   0  0  0  0  0  0  0  0  0  0  0  0
   -0.4220    2.2590    0.0000 C   0  0  0  0  0  0  0  0  0  0  0  0
   -1.1370    1.8460    0.0000 O   0  0  0  0  0  0  0  0  0  0  0  0
   -0.4220    3.0840    0.0000 N   0  0  0  0  0  0  0  0  0  0  0  0
  1  2  1  0  0  0  0
  1  6  1  0  0  0  0
  2  3  1  0  0  0  0
  3  4  2  0  0  0  0
  3  5  1  0  0  0  0
  5  6  1  0  0  0  0
  5  7  1  0  0  0  0
  7  8  1  0  0  0  0
  8  9  2  0  0  0  0
  8 10  1  0  0  0  0
M  END
> <MOL_ID>
126

>  <Name_of_compounds>
piracetam

>  <Activity_Profiles>
0 0 0 0 0

> <INITIAL_ID>
2666

> <SUM_activity>
0

$$$$
129
  MOE2007           2D

 13 14  0  0  0  0  0  0  0  0999 V2000
    1.8140   -1.9360    0.0000 Cl  0  0  0  0  0  0  0  0  0  0  0  0
    1.8140   -2.7610    0.0000 C   0  0  0  0  0  0  0  0  0  0  0  0
    2.5280   -3.1730    0.0000 C   0  0  0  0  0  0  0  0  0  0  0  0
    2.5280   -3.9980    0.0000 C   0  0  0  0  0  0  0  0  0  0  0  0
    3.2430   -4.4110    0.0000 N   0  0  0  0  0  0  0  0  0  0  0  0
    3.9570   -3.9980    0.0000 C   0  0  0  0  0  0  0  0  0  0  0  0
    4.6720   -4.4110    0.0000 C   0  0  0  0  0  0  0  0  0  0  0  0
    4.6720   -5.2360    0.0000 N   0  0  0  0  0  0  0  0  0  0  0  0
    3.9570   -5.6480    0.0000 C   0  0  0  0  0  0  0  0  0  0  0  0
    3.2430   -5.2360    0.0000 C   0  0  0  0  0  0  0  0  0  0  0  0
    1.8140   -4.4110    0.0000 C   0  0  0  0  0  0  0  0  0  0  0  0
    1.0990   -3.9980    0.0000 C   0  0  0  0  0  0  0  0  0  0  0  0
    1.0990   -3.1730    0.0000 C   0  0  0  0  0  0  0  0  0  0  0  0
  1  2  1  0  0  0  0
  2  3  1  0  0  0  0
  2 13  2  0  0  0  0
  3  4  2  0  0  0  0
  4  5  1  0  0  0  0
  4 11  1  0  0  0  0
  5  6  1  0  0  0  0
  5 10  1  0  0  0  0
  6  7  1  0  0  0  0
  7  8  1  0  0  0  0
  8  9  1  0  0  0  0
  9 10  1  0  0  0  0
 11 12  2  0  0  0  0
 12 13  1  0  0  0  0
M  END
> <MOL_ID>
28

>  <Name_of_compounds>
mCPP

>  <Activity_Profiles>
0 0 0 0 0

> <INITIAL_ID>
129

> <SUM_activity>
0

$$$$
130
  MOE2007           2D

 13 14  0  0  0  0  0  0  0  0999 V2000
   -0.3850   -1.9360    0.0000 Cl  0  0  0  0  0  0  0  0  0  0  0  0
   -0.3850   -2.7610    0.0000 C   0  0  0  0  0  0  0  0  0  0  0  0
    0.3300   -3.1730    0.0000 C   0  0  0  0  0  0  0  0  0  0  0  0
    0.3300   -3.9980    0.0000 N   0  0  0  0  0  0  0  0  0  0  0  0
   -0.3850   -4.4110    0.0000 C   0  0  0  0  0  0  0  0  0  0  0  0
   -1.0990   -3.9980    0.0000 C   0  0  0  0  0  0  0  0  0  0  0  0
   -1.8140   -4.4110    0.0000 N   0  0  0  0  0  0  0  0  0  0  0  0
   -1.8140   -5.2360    0.0000 C   0  0  0  0  0  0  0  0  0  0  0  0
   -2.5280   -5.6480    0.0000 C   0  0  0  0  0  0  0  0  0  0  0  0
   -3.2430   -5.2360    0.0000 N   0  0  0  0  0  0  0  0  0  0  0  0
   -3.2430   -4.4110    0.0000 C   0  0  0  0  0  0  0  0  0  0  0  0
   -2.5280   -3.9980    0.0000 C   0  0  0  0  0  0  0  0  0  0  0  0
   -1.0990   -3.1730    0.0000 N   0  0  0  0  0  0  0  0  0  0  0  0
  1  2  1  0  0  0  0
  2  3  1  0  0  0  0
  2 13  2  0  0  0  0
  3  4  2  0  0  0  0
  4  5  1  0  0  0  0
  5  6  2  0  0  0  0
  6  7  1  0  0  0  0
  6 13  1  0  0  0  0
  7  8  1  0  0  0  0
  7 12  1  0  0  0  0
  8  9  1  0  0  0  0
  9 10  1  0  0  0  0
 10 11  1  0  0  0  0
 11 12  1  0  0  0  0
M  END
> <MOL_ID>
29

>  <Name_of_compounds>
MK-212

>  <Activity_Profiles>
0 0 0 0 0

> <INITIAL_ID>
130

> <SUM_activity>
0

$$$$
633
  MOE2007           2D

 13 15  0  0  1  0  0  0  0  0999 V2000
    0.5370   -2.1680    0.0000 C   0  0  0  0  0  0  0  0  0  0  0  0
    1.3290   -1.9360    0.0000 C   0  0  3  0  0  0  0  0  0  0  0  0
    0.7680   -1.3350    0.0000 C   0  0  0  0  0  0  0  0  0  0  0  0
    1.6500   -1.5460    0.0000 C   0  0  0  0  0  0  0  0  0  0  0  0
    2.3700   -1.3350    0.0000 C   0  0  0  0  0  0  0  0  0  0  0  0
    2.9310   -1.9360    0.0000 C   0  0  3  0  0  0  0  0  0  0  0  0
    2.0490   -1.7250    0.0000 C   0  0  0  0  0  0  0  0  0  0  0  0
    2.7820   -2.7440    0.0000 C   0  0  0  0  0  0  0  0  0  0  0  0
    2.0620   -2.9550    0.0000 C   0  0  0  0  0  0  0  0  0  0  0  0
    1.4960   -2.3560    0.0000 C   0  0  0  0  0  0  0  0  0  0  0  0
    1.1800   -2.7440    0.0000 C   0  0  0  0  0  0  0  0  0  0  0  0
    2.0830   -3.7790    0.0000 N   0  0  0  0  0  0  0  0  0  0  0  0
    3.7230   -1.7040    0.0000 C   0  0  0  0  0  0  0  0  0  0  0  0
  1  2  1  0  0  0  0
  2  3  1  0  0  0  0
  2  7  1  0  0  0  0
  2 11  1  0  0  0  0
  3  4  1  0  0  0  0
  4  5  1  0  0  0  0
  4 10  1  0  0  0  0
  5  6  1  0  0  0  0
  6  7  1  0  0  0  0
  6  8  1  0  0  0  0
  6 13  1  0  0  0  0
  8  9  1  0  0  0  0
  9 10  1  0  0  0  0
  9 11  1  0  0  0  0
  9 12  1  0  0  0  0
M  END
> <MOL_ID>
45

>  <Name_of_compounds>
Memantine

>  <Activity_Profiles>
0 0 0 0 0

> <INITIAL_ID>
633

> <SUM_activity>
0

$$$$
2323
  MOE2007           2D

 19 20  0  0  1  0  0  0  0  0999 V2000
   -1.1000    1.3490    0.0000 C   0  0  0  0  0  0  0  0  0  0  0  0
   -1.1000    0.5240    0.0000 C   0  0  3  0  0  0  0  0  0  0  0  0
   -1.8140    0.1110    0.0000 C   0  0  0  0  0  0  0  0  0  0  0  0
   -2.5290    0.5240    0.0000 N   0  0  0  0  0  0  0  0  0  0  0  0
   -2.6150    1.3440    0.0000 C   0  0  0  0  0  0  0  0  0  0  0  0
   -3.4220    1.5160    0.0000 N   0  0  0  0  0  0  0  0  0  0  0  0
   -3.8340    0.8010    0.0000 C   0  0  0  0  0  0  0  0  0  0  0  0
   -3.2820    0.1880    0.0000 C   0  0  0  0  0  0  0  0  0  0  0  0
   -3.5370   -0.5960    0.0000 N   0  0  0  0  0  0  0  0  0  0  0  0
   -4.3440   -0.7680    0.0000 C   0  0  0  0  0  0  0  0  0  0  0  0
   -4.8960   -0.1550    0.0000 N   0  0  0  0  0  0  0  0  0  0  0  0
   -4.6420    0.6300    0.0000 C   0  0  0  0  0  0  0  0  0  0  0  0
   -5.1940    1.2430    0.0000 N   0  0  0  0  0  0  0  0  0  0  0  0
   -0.3850    0.1110    0.0000 O   0  0  0  0  0  0  0  0  0  0  0  0
    0.3290    0.5240    0.0000 C   0  0  0  0  0  0  0  0  0  0  0  0
    1.0440    0.1110    0.0000 P   0  0  0  0  0  0  0  0  0  0  0  0
    0.6310   -0.6030    0.0000 O   0  0  0  0  0  0  0  0  0  0  0  0
    1.4560    0.8260    0.0000 O   0  0  0  0  0  0  0  0  0  0  0  0
    1.7580   -0.3010    0.0000 O   0  0  0  0  0  0  0  0  0  0  0  0
  1  2  1  0  0  0  0
  2  3  1  0  0  0  0
  2 14  1  0  0  0  0
  3  4  1  0  0  0  0
  4  5  1  0  0  0  0
  4  8  1  0  0  0  0
  5  6  2  0  0  0  0
  6  7  1  0  0  0  0
  7  8  1  0  0  0  0
  7 12  2  0  0  0  0
  8  9  2  0  0  0  0
  9 10  1  0  0  0  0
 10 11  2  0  0  0  0
 11 12  1  0  0  0  0
 12 13  1  0  0  0  0
 14 15  1  0  0  0  0
 15 16  1  0  0  0  0
 16 17  2  0  0  0  0
 16 18  1  0  0  0  0
 16 19  1  0  0  0  0
M  END
> <MOL_ID>
118

>  <Name_of_compounds>
Tenofovir

>  <Activity_Profiles>
0 0 0 0 0

> <INITIAL_ID>
2323

> <SUM_activity>
0

$$$$
661
  MOE2007           2D

 22 23  0  0  1  0  0  0  0  0999 V2000
    1.0390  -10.6500    0.0000 C   0  0  0  0  0  0  0  0  0  0  0  0
    0.3250  -10.2380    0.0000 C   0  0  0  0  0  0  0  0  0  0  0  0
    0.3250   -9.4120    0.0000 N   0  0  0  0  0  0  0  0  0  0  0  0
   -0.3900   -9.0000    0.0000 C   0  0  0  0  0  0  0  0  0  0  0  0
   -1.1040   -9.4120    0.0000 C   0  0  0  0  0  0  0  0  0  0  0  0
    1.0390   -9.0000    0.0000 C   0  0  0  0  0  0  0  0  0  0  0  0
    1.7540   -9.4120    0.0000 C   0  0  0  0  0  0  0  0  0  0  0  0
    2.4680   -9.0000    0.0000 C   0  0  0  0  0  0  0  0  0  0  0  0
    3.1830   -9.4120    0.0000 C   0  0  3  0  0  0  0  0  0  0  0  0
    3.1830  -10.2380    0.0000 C   0  0  0  0  0  0  0  0  0  0  0  0
    3.8970   -9.0000    0.0000 N   0  0  0  0  0  0  0  0  0  0  0  0
    4.6120   -9.4120    0.0000 C   0  0  0  0  0  0  0  0  0  0  0  0
    5.3260   -9.0000    0.0000 C   0  0  0  0  0  0  0  0  0  0  0  0
    5.3260   -8.1750    0.0000 C   0  0  0  0  0  0  0  0  0  0  0  0
    6.0400   -7.7620    0.0000 C   0  0  0  0  0  0  0  0  0  0  0  0
    6.7550   -8.1750    0.0000 C   0  0  0  0  0  0  0  0  0  0  0  0
    6.7550   -9.0000    0.0000 C   0  0  0  0  0  0  0  0  0  0  0  0
    6.0400   -9.4120    0.0000 C   0  0  0  0  0  0  0  0  0  0  0  0
    6.0400  -10.2380    0.0000 N   0  0  0  0  0  0  0  0  0  0  0  0
    5.3260  -10.6500    0.0000 C   0  0  0  0  0  0  0  0  0  0  0  0
    4.6120  -10.2380    0.0000 C   0  0  0  0  0  0  0  0  0  0  0  0
    7.4700   -7.7620    0.0000 Cl  0  0  0  0  0  0  0  0  0  0  0  0
  1  2  1  0  0  0  0
  2  3  1  0  0  0  0
  3  4  1  0  0  0  0
  3  6  1  0  0  0  0
  4  5  1  0  0  0  0
  6  7  1  0  0  0  0
  7  8  1  0  0  0  0
  8  9  1  0  0  0  0
  9 10  1  0  0  0  0
  9 11  1  0  0  0  0
 11 12  1  0  0  0  0
 12 13  1  0  0  0  0
 12 21  2  0  0  0  0
 13 14  1  0  0  0  0
 13 18  2  0  0  0  0
 14 15  2  0  0  0  0
 15 16  1  0  0  0  0
 16 17  2  0  0  0  0
 16 22  1  0  0  0  0
 17 18  1  0  0  0  0
 18 19  1  0  0  0  0
 19 20  2  0  0  0  0
 20 21  1  0  0  0  0
M  END
> <MOL_ID>
46

>  <Name_of_compounds>
Chloroquine

>  <Activity_Profiles>
0 0 0 0 0

> <INITIAL_ID>
661

> <SUM_activity>
0

$$$$
630
  MOE2007           2D

 11 13  0  0  0  0  0  0  0  0999 V2000
    0.7030   -1.3350    0.0000 C   0  0  0  0  0  0  0  0  0  0  0  0
    1.2640   -1.9350    0.0000 C   0  0  0  0  0  0  0  0  0  0  0  0
    1.9840   -1.7250    0.0000 C   0  0  0  0  0  0  0  0  0  0  0  0
    2.8660   -1.9350    0.0000 C   0  0  0  0  0  0  0  0  0  0  0  0
    2.3050   -1.3350    0.0000 C   0  0  0  0  0  0  0  0  0  0  0  0
    1.5860   -1.5460    0.0000 C   0  0  0  0  0  0  0  0  0  0  0  0
    1.4320   -2.3550    0.0000 C   0  0  0  0  0  0  0  0  0  0  0  0
    1.9980   -2.9540    0.0000 C   0  0  0  0  0  0  0  0  0  0  0  0
    1.1160   -2.7440    0.0000 C   0  0  0  0  0  0  0  0  0  0  0  0
    2.7180   -2.7440    0.0000 C   0  0  0  0  0  0  0  0  0  0  0  0
    2.0190   -3.7790    0.0000 N   0  0  0  0  0  0  0  0  0  0  0  0
  1  2  1  0  0  0  0
  1  6  1  0  0  0  0
  2  3  1  0  0  0  0
  2  9  1  0  0  0  0
  3  4  1  0  0  0  0
  4  5  1  0  0  0  0
  4 10  1  0  0  0  0
  5  6  1  0  0  0  0
  6  7  1  0  0  0  0
  7  8  1  0  0  0  0
  8  9  1  0  0  0  0
  8 10  1  0  0  0  0
  8 11  1  0  0  0  0
M  END
> <MOL_ID>
43

>  <Name_of_compounds>
Amantadine

>  <Activity_Profiles>
0 0 0 0 0

> <INITIAL_ID>
630

> <SUM_activity>
0

$$$$
2357
  MOE2007           2D

 19 22  0  0  0  0  0  0  0  0999 V2000
    5.3210   -2.0840    0.0000 O   0  0  0  0  0  0  0  0  0  0  0  0
    6.1020   -2.3470    0.0000 C   0  0  0  0  0  0  0  0  0  0  0  0
    6.7220   -1.8020    0.0000 N   0  0  0  0  0  0  0  0  0  0  0  0
    7.5030   -2.0650    0.0000 C   0  0  0  0  0  0  0  0  0  0  0  0
    8.1230   -1.5200    0.0000 C   0  0  0  0  0  0  0  0  0  0  0  0
    8.9040   -1.7840    0.0000 C   0  0  0  0  0  0  0  0  0  0  0  0
    9.6230   -1.3790    0.0000 O   0  0  0  0  0  0  0  0  0  0  0  0
   10.2300   -1.9380    0.0000 C   0  0  0  0  0  0  0  0  0  0  0  0
   11.0520   -1.8610    0.0000 C   0  0  0  0  0  0  0  0  0  0  0  0
   11.5290   -2.5340    0.0000 C   0  0  0  0  0  0  0  0  0  0  0  0
   11.1850   -3.2830    0.0000 C   0  0  0  0  0  0  0  0  0  0  0  0
   10.3640   -3.3610    0.0000 C   0  0  0  0  0  0  0  0  0  0  0  0
    9.8860   -2.6880    0.0000 C   0  0  0  0  0  0  0  0  0  0  0  0
    9.0670   -2.5920    0.0000 C   0  0  0  0  0  0  0  0  0  0  0  0
    8.4480   -3.1380    0.0000 C   0  0  0  0  0  0  0  0  0  0  0  0
    7.6660   -2.8740    0.0000 C   0  0  0  0  0  0  0  0  0  0  0  0
    7.0470   -3.4200    0.0000 C   0  0  0  0  0  0  0  0  0  0  0  0
    7.2100   -4.2280    0.0000 C   0  0  0  0  0  0  0  0  0  0  0  0
    6.2650   -3.1560    0.0000 C   0  0  0  0  0  0  0  0  0  0  0  0
  1  2  1  0  0  0  0
  2  3  1  0  0  0  0
  2 19  2  0  0  0  0
  3  4  2  0  0  0  0
  4  5  1  0  0  0  0
  4 16  1  0  0  0  0
  5  6  2  0  0  0  0
  6  7  1  0  0  0  0
  6 14  1  0  0  0  0
  7  8  1  0  0  0  0
  8  9  1  0  0  0  0
  8 13  2  0  0  0  0
  9 10  2  0  0  0  0
 10 11  1  0  0  0  0
 11 12  2  0  0  0  0
 12 13  1  0  0  0  0
 13 14  1  0  0  0  0
 14 15  2  0  0  0  0
 15 16  1  0  0  0  0
 16 17  2  0  0  0  0
 17 18  1  0  0  0  0
 17 19  1  0  0  0  0
M  END
> <MOL_ID>
123

>  <Name_of_compounds>
4-methyl[1]benzofuro[3,2-g]quinolin-2-ol

>  <Activity_Profiles>
0 0 0 0 0

> <INITIAL_ID>
2357

> <SUM_activity>
0

$$$$
3253
  MOE2007           2D

 16 18  0  0  0  0  0  0  0  0999 V2000
    5.8230    1.1740    0.0000 O   0  0  0  0  0  0  0  0  0  0  0  0
    6.1810    0.4310    0.0000 C   0  0  0  0  0  0  0  0  0  0  0  0
    7.0060    0.4310    0.0000 N   0  0  0  0  0  0  0  0  0  0  0  0
    7.5200   -0.2140    0.0000 C   0  0  0  0  0  0  0  0  0  0  0  0
    8.3090    0.0290    0.0000 C   0  0  0  0  0  0  0  0  0  0  0  0
    8.9140   -0.5320    0.0000 C   0  0  0  0  0  0  0  0  0  0  0  0
    8.7300   -1.3360    0.0000 C   0  0  0  0  0  0  0  0  0  0  0  0
    7.9420   -1.5800    0.0000 C   0  0  0  0  0  0  0  0  0  0  0  0
    7.3370   -1.0180    0.0000 C   0  0  0  0  0  0  0  0  0  0  0  0
    6.5940   -1.3760    0.0000 S   0  0  0  0  0  0  0  0  0  0  0  0
    5.8500   -1.0180    0.0000 C   0  0  0  0  0  0  0  0  0  0  0  0
    5.2460   -1.5800    0.0000 C   0  0  0  0  0  0  0  0  0  0  0  0
    4.4570   -1.3360    0.0000 C   0  0  0  0  0  0  0  0  0  0  0  0
    4.2740   -0.5320    0.0000 C   0  0  0  0  0  0  0  0  0  0  0  0
    4.8780    0.0290    0.0000 C   0  0  0  0  0  0  0  0  0  0  0  0
    5.6670   -0.2140    0.0000 C   0  0  0  0  0  0  0  0  0  0  0  0
  1  2  2  0  0  0  0
  2  3  1  0  0  0  0
  2 16  1  0  0  0  0
  3  4  1  0  0  0  0
  4  5  1  0  0  0  0
  4  9  2  0  0  0  0
  5  6  2  0  0  0  0
  6  7  1  0  0  0  0
  7  8  2  0  0  0  0
  8  9  1  0  0  0  0
  9 10  1  0  0  0  0
 10 11  1  0  0  0  0
 11 12  1  0  0  0  0
 11 16  2  0  0  0  0
 12 13  2  0  0  0  0
 13 14  1  0  0  0  0
 14 15  2  0  0  0  0
 15 16  1  0  0  0  0
M  END
> <MOL_ID>
135

>  <Name_of_compounds>
DBTO

>  <Activity_Profiles>
0 0 0 0 0

> <INITIAL_ID>
3253

> <SUM_activity>
0

$$$$
2359
  MOE2007           2D

 23 26  0  0  0  0  0  0  0  0999 V2000
    1.9090    1.4710    0.0000 Cl  0  0  0  0  0  0  0  0  0  0  0  0
    2.6240    1.8830    0.0000 C   0  0  0  0  0  0  0  0  0  0  0  0
    2.6240    2.7080    0.0000 C   0  0  0  0  0  0  0  0  0  0  0  0
    3.3380    3.1210    0.0000 C   0  0  0  0  0  0  0  0  0  0  0  0
    3.3380    3.9460    0.0000 C   0  0  0  0  0  0  0  0  0  0  0  0
    2.6240    4.3580    0.0000 S   0  0  0  0  0  0  0  0  0  0  0  0
    2.6240    5.1830    0.0000 C   0  0  0  0  0  0  0  0  0  0  0  0
    1.9090    5.5960    0.0000 N   0  0  0  0  0  0  0  0  0  0  0  0
    1.9090    6.4210    0.0000 C   0  0  0  0  0  0  0  0  0  0  0  0
    2.6240    6.8330    0.0000 N   0  0  0  0  0  0  0  0  0  0  0  0
    2.6240    7.6580    0.0000 C   0  0  0  0  0  0  0  0  0  0  0  0
    3.3380    8.0710    0.0000 C   0  0  0  0  0  0  0  0  0  0  0  0
    3.7510    8.7850    0.0000 C   0  0  0  0  0  0  0  0  0  0  0  0
    4.1630    8.0710    0.0000 C   0  0  0  0  0  0  0  0  0  0  0  0
    3.3380    6.4210    0.0000 C   0  0  0  0  0  0  0  0  0  0  0  0
    3.3380    5.5960    0.0000 N   0  0  0  0  0  0  0  0  0  0  0  0
    4.0530    2.7080    0.0000 C   0  0  0  0  0  0  0  0  0  0  0  0
    4.7670    3.1210    0.0000 O   0  0  0  0  0  0  0  0  0  0  0  0
    5.4820    2.7080    0.0000 C   0  0  0  0  0  0  0  0  0  0  0  0
    5.4820    1.8830    0.0000 O   0  0  0  0  0  0  0  0  0  0  0  0
    4.7670    1.4710    0.0000 C   0  0  0  0  0  0  0  0  0  0  0  0
    4.0530    1.8830    0.0000 C   0  0  0  0  0  0  0  0  0  0  0  0
    3.3380    1.4710    0.0000 C   0  0  0  0  0  0  0  0  0  0  0  0
  1  2  1  0  0  0  0
  2  3  1  0  0  0  0
  2 23  2  0  0  0  0
  3  4  2  0  0  0  0
  4  5  1  0  0  0  0
  4 17  1  0  0  0  0
  5  6  1  0  0  0  0
  6  7  1  0  0  0  0
  7  8  2  0  0  0  0
  7 16  1  0  0  0  0
  8  9  1  0  0  0  0
  9 10  1  0  0  0  0
 10 11  1  0  0  0  0
 10 15  1  0  0  0  0
 11 12  1  0  0  0  0
 12 13  1  0  0  0  0
 12 14  1  0  0  0  0
 13 14  1  0  0  0  0
 15 16  1  0  0  0  0
 17 18  1  0  0  0  0
 17 22  2  0  0  0  0
 18 19  1  0  0  0  0
 19 20  1  0  0  0  0
 20 21  1  0  0  0  0
 21 22  1  0  0  0  0
 22 23  1  0  0  0  0
M  END
> <MOL_ID>
124

>  <Name_of_compounds>
6-(((6-chloro-4H-1,3-benzodioxin-8-yl)methyl)thio)-3-(cyclopropylmethyl)-1,2,3,4-tetrahydro-1,3,5-triazine 

>  <Activity_Profiles>
0 0 0 0 0

> <INITIAL_ID>
2359

> <SUM_activity>
0

$$$$
3262
  MOE2007           2D

 11 10  0  0  0  0  0  0  0  0999 V2000
    2.9320   -2.0020    0.0000 O   0  0  0  0  0  0  0  0  0  0  0  0
    3.3450   -2.7160    0.0000 S   0  0  0  0  0  0  0  0  0  0  0  0
    4.0590   -2.3030    0.0000 C   0  0  0  0  0  0  0  0  0  0  0  0
    4.7740   -2.7160    0.0000 C   0  0  0  0  0  0  0  0  0  0  0  0
    5.4880   -2.3030    0.0000 C   0  0  0  0  0  0  0  0  0  0  0  0
    6.2030   -2.7160    0.0000 N   0  0  0  0  0  0  0  0  0  0  0  0
    6.9170   -2.3030    0.0000 C   0  0  0  0  0  0  0  0  0  0  0  0
    6.9170   -1.4780    0.0000 C   0  0  0  0  0  0  0  0  0  0  0  0
    7.6320   -2.7160    0.0000 O   0  0  0  0  0  0  0  0  0  0  0  0
    2.6300   -3.1280    0.0000 O   0  0  0  0  0  0  0  0  0  0  0  0
    3.7570   -3.4300    0.0000 O   0  0  0  0  0  0  0  0  0  0  0  0
  1  2  2  0  0  0  0
  2  3  1  0  0  0  0
  2 10  1  0  0  0  0
  2 11  2  0  0  0  0
  3  4  1  0  0  0  0
  4  5  1  0  0  0  0
  5  6  1  0  0  0  0
  6  7  1  0  0  0  0
  7  8  1  0  0  0  0
  7  9  2  0  0  0  0
M  END
> <MOL_ID>
136

>  <Name_of_compounds>
Acamprosate

>  <Activity_Profiles>
0 0 0 0 0

> <INITIAL_ID>
3262

> <SUM_activity>
0

$$$$
7826
  MOE2007           2D

 25 27  0  0  1  0  0  0  0  0999 V2000
    2.3880   -5.0740    0.0000 C   0  0  0  0  0  0  0  0  0  0  0  0
    3.1020   -5.4870    0.0000 N   0  0  0  0  0  0  0  0  0  0  0  0
    3.8170   -5.0740    0.0000 C   0  0  0  0  0  0  0  0  0  0  0  0
    4.5310   -5.4870    0.0000 C   0  0  0  0  0  0  0  0  0  0  0  0
    5.2460   -5.0740    0.0000 O   0  0  0  0  0  0  0  0  0  0  0  0
    5.9600   -5.4870    0.0000 C   0  0  0  0  0  0  0  0  0  0  0  0
    6.6750   -5.0740    0.0000 C   0  0  0  0  0  0  0  0  0  0  0  0
    7.3890   -5.4870    0.0000 C   0  0  0  0  0  0  0  0  0  0  0  0
    7.3890   -6.3120    0.0000 C   0  0  0  0  0  0  0  0  0  0  0  0
    6.6750   -6.7240    0.0000 C   0  0  0  0  0  0  0  0  0  0  0  0
    5.9600   -6.3120    0.0000 C   0  0  0  0  0  0  0  0  0  0  0  0
    8.1040   -6.7240    0.0000 C   0  0  0  0  0  0  0  0  0  0  0  0
    8.1040   -7.5490    0.0000 C   0  0  3  0  0  0  0  0  0  0  0  0
    8.7710   -8.0340    0.0000 C   0  0  0  0  0  0  0  0  0  0  0  0
    9.5560   -7.7790    0.0000 O   0  0  0  0  0  0  0  0  0  0  0  0
    8.5160   -8.8190    0.0000 N   0  0  0  0  0  0  0  0  0  0  0  0
    7.6910   -8.8190    0.0000 C   0  0  0  0  0  0  0  0  0  0  0  0
    7.2060   -9.4860    0.0000 O   0  0  0  0  0  0  0  0  0  0  0  0
    7.4360   -8.0340    0.0000 S   0  0  0  0  0  0  0  0  0  0  0  0
    3.1020   -6.3120    0.0000 C   0  0  0  0  0  0  0  0  0  0  0  0
    3.8170   -6.7240    0.0000 C   0  0  0  0  0  0  0  0  0  0  0  0
    3.8170   -7.5490    0.0000 C   0  0  0  0  0  0  0  0  0  0  0  0
    3.1020   -7.9620    0.0000 C   0  0  0  0  0  0  0  0  0  0  0  0
    2.3880   -7.5490    0.0000 C   0  0  0  0  0  0  0  0  0  0  0  0
    2.3880   -6.7240    0.0000 N   0  0  0  0  0  0  0  0  0  0  0  0
  1  2  1  0  0  0  0
  2  3  1  0  0  0  0
  2 20  1  0  0  0  0
  3  4  1  0  0  0  0
  4  5  1  0  0  0  0
  5  6  1  0  0  0  0
  6  7  1  0  0  0  0
  6 11  2  0  0  0  0
  7  8  2  0  0  0  0
  8  9  1  0  0  0  0
  9 10  2  0  0  0  0
  9 12  1  0  0  0  0
 10 11  1  0  0  0  0
 12 13  1  0  0  0  0
 13 14  1  0  0  0  0
 13 19  1  0  0  0  0
 14 15  2  0  0  0  0
 14 16  1  0  0  0  0
 16 17  1  0  0  0  0
 17 18  2  0  0  0  0
 17 19  1  0  0  0  0
 20 21  1  0  0  0  0
 20 25  2  0  0  0  0
 21 22  2  0  0  0  0
 22 23  1  0  0  0  0
 23 24  2  0  0  0  0
 24 25  1  0  0  0  0
M  END
> <MOL_ID>
142

>  <Name_of_compounds>
Rosiglitazone

>  <Activity_Profiles>
0 0 0 0 0

> <INITIAL_ID>
7826

> <SUM_activity>
0

$$$$
2668
  MOE2007           2D

 11 11  0  0  1  0  0  0  0  0999 V2000
    0.5680   -0.0430    0.0000 C   0  0  0  0  0  0  0  0  0  0  0  0
    0.3140   -0.8270    0.0000 C   0  0  3  0  0  0  0  0  0  0  0  0
   -0.5110   -0.8270    0.0000 C   0  0  0  0  0  0  0  0  0  0  0  0
   -0.7660   -0.0430    0.0000 N   0  0  0  0  0  0  0  0  0  0  0  0
   -0.0990    0.4420    0.0000 C   0  0  0  0  0  0  0  0  0  0  0  0
   -0.0990    1.2670    0.0000 O   0  0  0  0  0  0  0  0  0  0  0  0
   -1.5510    0.2120    0.0000 C   0  0  0  0  0  0  0  0  0  0  0  0
   -2.1640   -0.3400    0.0000 C   0  0  0  0  0  0  0  0  0  0  0  0
   -1.9930   -1.1470    0.0000 O   0  0  0  0  0  0  0  0  0  0  0  0
   -2.9490   -0.0850    0.0000 N   0  0  0  0  0  0  0  0  0  0  0  0
    0.7980   -1.4950    0.0000 O   0  0  0  0  0  0  0  0  0  0  0  0
  1  2  1  0  0  0  0
  1  5  1  0  0  0  0
  2  3  1  0  0  0  0
  2 11  1  0  0  0  0
  3  4  1  0  0  0  0
  4  5  1  0  0  0  0
  4  7  1  0  0  0  0
  5  6  2  0  0  0  0
  7  8  1  0  0  0  0
  8  9  2  0  0  0  0
  8 10  1  0  0  0  0
M  END
> <MOL_ID>
128

>  <Name_of_compounds>
oxiracetam

>  <Activity_Profiles>
0 0 0 0 0

> <INITIAL_ID>
2668

> <SUM_activity>
0

$$$$
607
  MOE2007           2D

 11 11  0  0  1  0  0  0  0  0999 V2000
    0.4550    1.1620    0.0000 C   0  0  0  0  0  0  0  0  0  0  0  0
    0.4550    0.3380    0.0000 C   0  0  2  0  0  0  0  0  0  0  0  0
    1.1690   -0.0750    0.0000 C   0  0  0  0  0  0  0  0  0  0  0  0
    1.1690   -0.9000    0.0000 C   0  0  0  0  0  0  0  0  0  0  0  0
    0.4550   -1.3120    0.0000 C   0  0  2  0  0  0  0  0  0  0  0  0
    0.4550   -2.1380    0.0000 C   0  0  0  0  0  0  0  0  0  0  0  0
   -0.2600   -2.5500    0.0000 C   0  0  0  0  0  0  0  0  0  0  0  0
    1.1690   -2.5500    0.0000 C   0  0  0  0  0  0  0  0  0  0  0  0
   -0.2600   -0.9000    0.0000 C   0  0  1  0  0  0  0  0  0  0  0  0
   -0.9740   -1.3120    0.0000 O   0  0  0  0  0  0  0  0  0  0  0  0
   -0.2600   -0.0750    0.0000 C   0  0  0  0  0  0  0  0  0  0  0  0
  2  1  1  6  0  0  0
  2  3  1  0  0  0  0
  2 11  1  0  0  0  0
  3  4  1  0  0  0  0
  4  5  1  0  0  0  0
  5  6  1  6  0  0  0
  5  9  1  0  0  0  0
  6  7  1  0  0  0  0
  6  8  1  0  0  0  0
  9 10  1  1  0  0  0
  9 11  1  0  0  0  0
M  END
> <MOL_ID>
41

>  <Name_of_compounds>
(+) isomenthol

>  <Activity_Profiles>
0 0 0 0 0

> <INITIAL_ID>
607

> <SUM_activity>
0

$$$$
605
  MOE2007           2D

 11 11  0  0  1  0  0  0  0  0999 V2000
    0.4550    1.1620    0.0000 C   0  0  0  0  0  0  0  0  0  0  0  0
    0.4550    0.3380    0.0000 C   0  0  2  0  0  0  0  0  0  0  0  0
    1.1690   -0.0750    0.0000 C   0  0  0  0  0  0  0  0  0  0  0  0
    1.1690   -0.9000    0.0000 C   0  0  0  0  0  0  0  0  0  0  0  0
    0.4550   -1.3120    0.0000 C   0  0  1  0  0  0  0  0  0  0  0  0
    0.4550   -2.1380    0.0000 C   0  0  0  0  0  0  0  0  0  0  0  0
   -0.2600   -2.5500    0.0000 C   0  0  0  0  0  0  0  0  0  0  0  0
    1.1690   -2.5500    0.0000 C   0  0  0  0  0  0  0  0  0  0  0  0
   -0.2600   -0.9000    0.0000 C   0  0  1  0  0  0  0  0  0  0  0  0
   -0.9740   -1.3120    0.0000 O   0  0  0  0  0  0  0  0  0  0  0  0
   -0.2600   -0.0750    0.0000 C   0  0  0  0  0  0  0  0  0  0  0  0
  2  1  1  6  0  0  0
  2  3  1  0  0  0  0
  2 11  1  0  0  0  0
  3  4  1  0  0  0  0
  4  5  1  0  0  0  0
  5  6  1  1  0  0  0
  5  9  1  0  0  0  0
  6  7  1  0  0  0  0
  6  8  1  0  0  0  0
  9 10  1  1  0  0  0
  9 11  1  0  0  0  0
M  END
> <MOL_ID>
39

>  <Name_of_compounds>
(+) Neomenthol

>  <Activity_Profiles>
0 0 0 0 0

> <INITIAL_ID>
605

> <SUM_activity>
0

$$$$
606
  MOE2007           2D

 11 11  0  0  1  0  0  0  0  0999 V2000
    0.4550    1.1620    0.0000 C   0  0  0  0  0  0  0  0  0  0  0  0
    0.4550    0.3380    0.0000 C   0  0  1  0  0  0  0  0  0  0  0  0
    1.1690   -0.0750    0.0000 C   0  0  0  0  0  0  0  0  0  0  0  0
    1.1690   -0.9000    0.0000 C   0  0  0  0  0  0  0  0  0  0  0  0
    0.4550   -1.3120    0.0000 C   0  0  2  0  0  0  0  0  0  0  0  0
    0.4550   -2.1380    0.0000 C   0  0  0  0  0  0  0  0  0  0  0  0
   -0.2600   -2.5500    0.0000 C   0  0  0  0  0  0  0  0  0  0  0  0
    1.1690   -2.5500    0.0000 C   0  0  0  0  0  0  0  0  0  0  0  0
   -0.2600   -0.9000    0.0000 C   0  0  2  0  0  0  0  0  0  0  0  0
   -0.9740   -1.3120    0.0000 O   0  0  0  0  0  0  0  0  0  0  0  0
   -0.2600   -0.0750    0.0000 C   0  0  0  0  0  0  0  0  0  0  0  0
  2  1  1  1  0  0  0
  2  3  1  0  0  0  0
  2 11  1  0  0  0  0
  3  4  1  0  0  0  0
  4  5  1  0  0  0  0
  5  6  1  6  0  0  0
  5  9  1  0  0  0  0
  6  7  1  0  0  0  0
  6  8  1  0  0  0  0
  9 10  1  6  0  0  0
  9 11  1  0  0  0  0
M  END
> <MOL_ID>
40

>  <Name_of_compounds>
(-) Neomenthol

>  <Activity_Profiles>
0 0 0 0 0

> <INITIAL_ID>
606

> <SUM_activity>
0

$$$$
3250
  MOE2007           2D

 18 19  0  0  0  0  0  0  0  0999 V2000
   -4.2870    0.0000    0.0000 C   0  0  0  0  0  0  0  0  0  0  0  0
   -3.5720   -0.4120    0.0000 C   0  0  0  0  0  0  0  0  0  0  0  0
   -3.5720   -1.2380    0.0000 O   0  0  0  0  0  0  0  0  0  0  0  0
   -2.8580    0.0000    0.0000 N   0  0  0  0  0  0  0  0  0  0  0  0
   -2.1430   -0.4120    0.0000 C   0  0  0  0  0  0  0  0  0  0  0  0
   -1.4290    0.0000    0.0000 C   0  0  0  0  0  0  0  0  0  0  0  0
   -0.7140   -0.4120    0.0000 C   0  0  0  0  0  0  0  0  0  0  0  0
   -0.7140   -1.2380    0.0000 C   0  0  0  0  0  0  0  0  0  0  0  0
    0.0000   -1.6500    0.0000 C   0  0  0  0  0  0  0  0  0  0  0  0
    0.7140   -1.2380    0.0000 C   0  0  0  0  0  0  0  0  0  0  0  0
    0.7140   -0.4120    0.0000 C   0  0  0  0  0  0  0  0  0  0  0  0
    0.0000    0.0000    0.0000 C   0  0  0  0  0  0  0  0  0  0  0  0
    0.0000    0.8250    0.0000 C   0  0  0  0  0  0  0  0  0  0  0  0
    0.7140    1.2380    0.0000 C   0  0  0  0  0  0  0  0  0  0  0  0
    1.4290    0.8250    0.0000 C   0  0  0  0  0  0  0  0  0  0  0  0
    1.4290    0.0000    0.0000 C   0  0  0  0  0  0  0  0  0  0  0  0
    0.7140    2.0620    0.0000 O   0  0  0  0  0  0  0  0  0  0  0  0
    1.4290    2.4750    0.0000 C   0  0  0  0  0  0  0  0  0  0  0  0
  1  2  1  0  0  0  0
  2  3  2  0  0  0  0
  2  4  1  0  0  0  0
  4  5  1  0  0  0  0
  5  6  1  0  0  0  0
  6  7  1  0  0  0  0
  7  8  2  0  0  0  0
  7 12  1  0  0  0  0
  8  9  1  0  0  0  0
  9 10  2  0  0  0  0
 10 11  1  0  0  0  0
 11 12  1  0  0  0  0
 11 16  2  0  0  0  0
 12 13  2  0  0  0  0
 13 14  1  0  0  0  0
 14 15  2  0  0  0  0
 14 17  1  0  0  0  0
 15 16  1  0  0  0  0
 17 18  1  0  0  0  0
M  END
> <MOL_ID>
133

>  <Name_of_compounds>
Agomelatine

>  <Activity_Profiles>
0 0 0 0 0

> <INITIAL_ID>
3250

> <SUM_activity>
0

$$$$
603
  MOE2007           2D

 11 11  0  0  1  0  0  0  0  0999 V2000
    0.4550    1.1620    0.0000 C   0  0  0  0  0  0  0  0  0  0  0  0
    0.4550    0.3380    0.0000 C   0  0  2  0  0  0  0  0  0  0  0  0
    1.1690   -0.0750    0.0000 C   0  0  0  0  0  0  0  0  0  0  0  0
    1.1690   -0.9000    0.0000 C   0  0  0  0  0  0  0  0  0  0  0  0
    0.4550   -1.3120    0.0000 C   0  0  2  0  0  0  0  0  0  0  0  0
   -0.2600   -0.9000    0.0000 C   0  0  1  0  0  0  0  0  0  0  0  0
   -0.2600   -0.0750    0.0000 C   0  0  0  0  0  0  0  0  0  0  0  0
   -0.9740   -1.3120    0.0000 O   0  0  0  0  0  0  0  0  0  0  0  0
    0.4550   -2.1380    0.0000 C   0  0  0  0  0  0  0  0  0  0  0  0
   -0.2600   -2.5500    0.0000 C   0  0  0  0  0  0  0  0  0  0  0  0
    1.1690   -2.5500    0.0000 C   0  0  0  0  0  0  0  0  0  0  0  0
  2  1  1  6  0  0  0
  2  3  1  0  0  0  0
  2  7  1  0  0  0  0
  3  4  1  0  0  0  0
  4  5  1  0  0  0  0
  5  6  1  0  0  0  0
  5  9  1  1  0  0  0
  6  7  1  0  0  0  0
  6  8  1  6  0  0  0
  9 10  1  0  0  0  0
  9 11  1  0  0  0  0
M  END
> <MOL_ID>
37

>  <Name_of_compounds>
(+) Menthol

>  <Activity_Profiles>
0 0 0 0 0

> <INITIAL_ID>
603

> <SUM_activity>
0

$$$$
604
  MOE2007           2D

 11 11  0  0  1  0  0  0  0  0999 V2000
    0.4550    1.1620    0.0000 C   0  0  0  0  0  0  0  0  0  0  0  0
    0.4550    0.3380    0.0000 C   0  0  2  0  0  0  0  0  0  0  0  0
    1.1690   -0.0750    0.0000 C   0  0  0  0  0  0  0  0  0  0  0  0
    1.1690   -0.9000    0.0000 C   0  0  0  0  0  0  0  0  0  0  0  0
    0.4550   -1.3120    0.0000 C   0  0  1  0  0  0  0  0  0  0  0  0
    0.4550   -2.1380    0.0000 C   0  0  0  0  0  0  0  0  0  0  0  0
   -0.2600   -2.5500    0.0000 C   0  0  0  0  0  0  0  0  0  0  0  0
    1.1690   -2.5500    0.0000 C   0  0  0  0  0  0  0  0  0  0  0  0
   -0.2600   -0.9000    0.0000 C   0  0  2  0  0  0  0  0  0  0  0  0
   -0.9740   -1.3120    0.0000 O   0  0  0  0  0  0  0  0  0  0  0  0
   -0.2600   -0.0750    0.0000 C   0  0  0  0  0  0  0  0  0  0  0  0
  2  1  1  6  0  0  0
  2  3  1  0  0  0  0
  2 11  1  0  0  0  0
  3  4  1  0  0  0  0
  4  5  1  0  0  0  0
  5  6  1  1  0  0  0
  5  9  1  0  0  0  0
  6  7  1  0  0  0  0
  6  8  1  0  0  0  0
  9 10  1  6  0  0  0
  9 11  1  0  0  0  0
M  END
> <MOL_ID>
38

>  <Name_of_compounds>
(-) Menthol

>  <Activity_Profiles>
0 0 0 0 0

> <INITIAL_ID>
604

> <SUM_activity>
0

$$$$
126
  MOE2007           2D

 24 25  0  0  0  0  0  0  0  0999 V2000
   -2.1430   -3.7120    0.0000 C   0  0  0  0  0  0  0  0  0  0  0  0
   -1.4290   -4.1250    0.0000 N   0  0  0  0  0  0  0  0  0  0  0  0
   -0.7140   -3.7120    0.0000 C   0  0  0  0  0  0  0  0  0  0  0  0
    0.0000   -4.1250    0.0000 C   0  0  0  0  0  0  0  0  0  0  0  0
    0.7140   -3.7120    0.0000 O   0  0  0  0  0  0  0  0  0  0  0  0
    0.7140   -2.8880    0.0000 N   0  0  0  0  0  0  0  0  0  0  0  0
    1.4290   -2.4750    0.0000 C   0  0  0  0  0  0  0  0  0  0  0  0
    2.1430   -2.8880    0.0000 C   0  0  0  0  0  0  0  0  0  0  0  0
    2.8580   -2.4750    0.0000 C   0  0  0  0  0  0  0  0  0  0  0  0
    3.5720   -2.8880    0.0000 C   0  0  0  0  0  0  0  0  0  0  0  0
    3.5720   -3.7120    0.0000 C   0  0  0  0  0  0  0  0  0  0  0  0
    2.8580   -4.1250    0.0000 C   0  0  0  0  0  0  0  0  0  0  0  0
    2.1430   -3.7120    0.0000 C   0  0  0  0  0  0  0  0  0  0  0  0
    1.4290   -4.1250    0.0000 F   0  0  0  0  0  0  0  0  0  0  0  0
    1.4290   -1.6500    0.0000 C   0  0  0  0  0  0  0  0  0  0  0  0
    0.7140   -1.2380    0.0000 C   0  0  0  0  0  0  0  0  0  0  0  0
    0.7140   -0.4120    0.0000 C   0  0  0  0  0  0  0  0  0  0  0  0
    0.0000    0.0000    0.0000 C   0  0  0  0  0  0  0  0  0  0  0  0
    0.0000    0.8250    0.0000 C   0  0  0  0  0  0  0  0  0  0  0  0
    0.7140    1.2380    0.0000 C   0  0  0  0  0  0  0  0  0  0  0  0
    0.7140    2.0620    0.0000 O   0  0  0  0  0  0  0  0  0  0  0  0
    1.4290    0.8250    0.0000 C   0  0  0  0  0  0  0  0  0  0  0  0
    1.4290    0.0000    0.0000 C   0  0  0  0  0  0  0  0  0  0  0  0
   -1.4290   -4.9500    0.0000 C   0  0  0  0  0  0  0  0  0  0  0  0
  1  2  1  0  0  0  0
  2  3  1  0  0  0  0
  2 24  1  0  0  0  0
  3  4  1  0  0  0  0
  4  5  1  0  0  0  0
  5  6  1  0  0  0  0
  6  7  2  0  0  0  0
  7  8  1  0  0  0  0
  7 15  1  0  0  0  0
  8  9  1  0  0  0  0
  8 13  2  0  0  0  0
  9 10  2  0  0  0  0
 10 11  1  0  0  0  0
 11 12  2  0  0  0  0
 12 13  1  0  0  0  0
 13 14  1  0  0  0  0
 15 16  2  0  0  0  0
 16 17  1  0  0  0  0
 17 18  1  0  0  0  0
 17 23  2  0  0  0  0
 18 19  2  0  0  0  0
 19 20  1  0  0  0  0
 20 21  1  0  0  0  0
 20 22  2  0  0  0  0
 22 23  1  0  0  0  0
M  END
> <MOL_ID>
25

>  <Name_of_compounds>
SR46349B

>  <Activity_Profiles>
0 0 1 0 0

> <INITIAL_ID>
126

> <SUM_activity>
1

$$$$
1329
  MOE2007           2D

 12 12  0  0  1  0  0  0  0  0999 V2000
    3.6910    3.9190    0.0000 C   0  0  0  0  0  0  0  0  0  0  0  0
    2.9770    3.5060    0.0000 N   0  0  0  0  0  0  0  0  0  0  0  0
    2.2620    3.9190    0.0000 C   0  0  0  0  0  0  0  0  0  0  0  0
    1.5480    3.5060    0.0000 C   0  0  3  0  0  0  0  0  0  0  0  0
    1.5480    2.6810    0.0000 C   0  0  0  0  0  0  0  0  0  0  0  0
    2.2620    2.2690    0.0000 C   0  0  0  0  0  0  0  0  0  0  0  0
    2.2620    1.4440    0.0000 C   0  0  0  0  0  0  0  0  0  0  0  0
    1.5480    1.0310    0.0000 C   0  0  0  0  0  0  0  0  0  0  0  0
    0.8340    1.4440    0.0000 C   0  0  0  0  0  0  0  0  0  0  0  0
    0.8340    2.2690    0.0000 C   0  0  0  0  0  0  0  0  0  0  0  0
    2.9770    1.0310    0.0000 O   0  0  0  0  0  0  0  0  0  0  0  0
    0.8340    3.9190    0.0000 O   0  0  0  0  0  0  0  0  0  0  0  0
  1  2  1  0  0  0  0
  2  3  1  0  0  0  0
  3  4  1  0  0  0  0
  4  5  1  0  0  0  0
  4 12  1  0  0  0  0
  5  6  1  0  0  0  0
  5 10  2  0  0  0  0
  6  7  2  0  0  0  0
  7  8  1  0  0  0  0
  7 11  1  0  0  0  0
  8  9  2  0  0  0  0
  9 10  1  0  0  0  0
M  END
> <MOL_ID>
74

>  <Name_of_compounds>
(-)-phenylephrine

>  <Activity_Profiles>
0 0 0 1 0

> <INITIAL_ID>
1329

> <SUM_activity>
1

$$$$
540
  MOE2007           2D

 19 20  0  0  1  0  0  0  0  0999 V2000
   -1.6530   -4.0060    0.0000 C   0  0  0  0  0  0  0  0  0  0  0  0
   -0.9380   -4.4190    0.0000 C   0  0  0  0  0  0  0  0  0  0  0  0
   -0.9380   -5.2440    0.0000 C   0  0  0  0  0  0  0  0  0  0  0  0
   -0.2240   -4.0060    0.0000 C   0  0  0  0  0  0  0  0  0  0  0  0
    0.4910   -4.4190    0.0000 C   0  0  3  0  0  0  0  0  0  0  0  0
    0.4910   -5.2440    0.0000 C   0  0  0  0  0  0  0  0  0  0  0  0
    1.3160   -5.2440    0.0000 C   0  0  0  0  0  0  0  0  0  0  0  0
    1.7280   -4.5290    0.0000 C   0  0  0  0  0  0  0  0  0  0  0  0
    2.5530   -4.5290    0.0000 C   0  0  0  0  0  0  0  0  0  0  0  0
    2.9660   -5.2440    0.0000 C   0  0  0  0  0  0  0  0  0  0  0  0
    3.7910   -5.2440    0.0000 Cl  0  0  0  0  0  0  0  0  0  0  0  0
    2.5530   -5.9580    0.0000 C   0  0  0  0  0  0  0  0  0  0  0  0
    1.7280   -5.9580    0.0000 C   0  0  0  0  0  0  0  0  0  0  0  0
   -0.3340   -5.2440    0.0000 C   0  0  0  0  0  0  0  0  0  0  0  0
   -0.3340   -6.0690    0.0000 C   0  0  0  0  0  0  0  0  0  0  0  0
    0.4910   -6.0690    0.0000 C   0  0  0  0  0  0  0  0  0  0  0  0
    1.2050   -4.0060    0.0000 N   0  0  0  0  0  0  0  0  0  0  0  0
    1.2050   -3.1810    0.0000 C   0  0  0  0  0  0  0  0  0  0  0  0
    2.0120   -4.1780    0.0000 C   0  0  0  0  0  0  0  0  0  0  0  0
  1  2  1  0  0  0  0
  2  3  1  0  0  0  0
  2  4  1  0  0  0  0
  4  5  1  0  0  0  0
  5  6  1  0  0  0  0
  5 17  1  0  0  0  0
  6  7  1  0  0  0  0
  6 14  1  0  0  0  0
  6 16  1  0  0  0  0
  7  8  1  0  0  0  0
  7 13  2  0  0  0  0
  8  9  2  0  0  0  0
  9 10  1  0  0  0  0
 10 11  1  0  0  0  0
 10 12  2  0  0  0  0
 12 13  1  0  0  0  0
 14 15  1  0  0  0  0
 15 16  1  0  0  0  0
 17 18  1  0  0  0  0
 17 19  1  0  0  0  0
M  END
> <MOL_ID>
31

>  <Name_of_compounds>
Sibutramine

>  <Activity_Profiles>
0 0 1 0 0

> <INITIAL_ID>
540

> <SUM_activity>
1

$$$$
5051
  MOE2007           2D

 18 20  0  0  0  0  0  0  0  0999 V2000
    3.7930    4.6040    0.0000 C   0  0  0  0  0  0  0  0  0  0  0  0
    3.7070    3.7840    0.0000 C   0  0  0  0  0  0  0  0  0  0  0  0
    4.3200    3.2320    0.0000 C   0  0  0  0  0  0  0  0  0  0  0  0
    3.9840    2.4780    0.0000 C   0  0  0  0  0  0  0  0  0  0  0  0
    3.1640    2.5650    0.0000 C   0  0  0  0  0  0  0  0  0  0  0  0
    2.9920    3.3720    0.0000 N   0  0  0  0  0  0  0  0  0  0  0  0
    2.6120    1.9520    0.0000 C   0  0  0  0  0  0  0  0  0  0  0  0
    2.8670    1.1670    0.0000 C   0  0  0  0  0  0  0  0  0  0  0  0
    3.6510    0.9120    0.0000 C   0  0  0  0  0  0  0  0  0  0  0  0
    4.3660    1.3240    0.0000 C   0  0  0  0  0  0  0  0  0  0  0  0
    5.0800    0.9120    0.0000 C   0  0  0  0  0  0  0  0  0  0  0  0
    5.0800    0.0870    0.0000 C   0  0  0  0  0  0  0  0  0  0  0  0
    4.3660   -0.3260    0.0000 C   0  0  0  0  0  0  0  0  0  0  0  0
    3.6510    0.0870    0.0000 C   0  0  0  0  0  0  0  0  0  0  0  0
    2.8670   -0.1680    0.0000 N   0  0  0  0  0  0  0  0  0  0  0  0
    2.3820    0.4990    0.0000 C   0  0  0  0  0  0  0  0  0  0  0  0
    1.5570    0.4990    0.0000 O   0  0  0  0  0  0  0  0  0  0  0  0
    4.3970    1.7640    0.0000 C   0  0  0  0  0  0  0  0  0  0  0  0
  1  2  1  0  0  0  0
  2  3  2  0  0  0  0
  2  6  1  0  0  0  0
  3  4  1  0  0  0  0
  4  5  2  0  0  0  0
  4 18  1  0  0  0  0
  5  6  1  0  0  0  0
  5  7  1  0  0  0  0
  7  8  2  0  0  0  0
  8  9  1  0  0  0  0
  8 16  1  0  0  0  0
  9 10  1  0  0  0  0
  9 14  2  0  0  0  0
 10 11  2  0  0  0  0
 11 12  1  0  0  0  0
 12 13  2  0  0  0  0
 13 14  1  0  0  0  0
 14 15  1  0  0  0  0
 15 16  1  0  0  0  0
 16 17  2  0  0  0  0
M  END
> <MOL_ID>
139

>  <Name_of_compounds>
SU5416

>  <Activity_Profiles>
0 0 0 1 0

> <INITIAL_ID>
5051

> <SUM_activity>
1

$$$$
112
  MOE2007           2D

 23 26  0  0  0  0  0  0  0  0999 V2000
    4.8760    4.8580    0.0000 C   0  0  0  0  0  0  0  0  0  0  0  0
    5.2330    4.1150    0.0000 N   0  0  0  0  0  0  0  0  0  0  0  0
    6.0560    4.0530    0.0000 C   0  0  0  0  0  0  0  0  0  0  0  0
    6.4140    3.3100    0.0000 C   0  0  0  0  0  0  0  0  0  0  0  0
    5.9490    2.6280    0.0000 N   0  0  0  0  0  0  0  0  0  0  0  0
    5.1270    2.6900    0.0000 C   0  0  0  0  0  0  0  0  0  0  0  0
    4.7690    3.4330    0.0000 C   0  0  0  0  0  0  0  0  0  0  0  0
    6.3070    1.8850    0.0000 C   0  0  0  0  0  0  0  0  0  0  0  0
    7.1320    1.8850    0.0000 N   0  0  0  0  0  0  0  0  0  0  0  0
    7.6470    1.2400    0.0000 C   0  0  0  0  0  0  0  0  0  0  0  0
    7.4630    0.4350    0.0000 C   0  0  0  0  0  0  0  0  0  0  0  0
    6.7200    0.0780    0.0000 C   0  0  0  0  0  0  0  0  0  0  0  0
    5.9760    0.4350    0.0000 C   0  0  0  0  0  0  0  0  0  0  0  0
    5.3720   -0.1260    0.0000 C   0  0  0  0  0  0  0  0  0  0  0  0
    4.5830    0.1170    0.0000 C   0  0  0  0  0  0  0  0  0  0  0  0
    4.4000    0.9220    0.0000 C   0  0  0  0  0  0  0  0  0  0  0  0
    5.0050    1.4830    0.0000 C   0  0  0  0  0  0  0  0  0  0  0  0
    5.7930    1.2400    0.0000 C   0  0  0  0  0  0  0  0  0  0  0  0
    8.0680   -0.1260    0.0000 C   0  0  0  0  0  0  0  0  0  0  0  0
    8.8560    0.1170    0.0000 C   0  0  0  0  0  0  0  0  0  0  0  0
    9.0400    0.9220    0.0000 C   0  0  0  0  0  0  0  0  0  0  0  0
    8.4350    1.4830    0.0000 C   0  0  0  0  0  0  0  0  0  0  0  0
    9.8280    1.1650    0.0000 F   0  0  0  0  0  0  0  0  0  0  0  0
  1  2  1  0  0  0  0
  2  3  1  0  0  0  0
  2  7  1  0  0  0  0
  3  4  1  0  0  0  0
  4  5  1  0  0  0  0
  5  6  1  0  0  0  0
  5  8  1  0  0  0  0
  6  7  1  0  0  0  0
  8  9  2  0  0  0  0
  8 18  1  0  0  0  0
  9 10  1  0  0  0  0
 10 11  1  0  0  0  0
 10 22  2  0  0  0  0
 11 12  1  0  0  0  0
 11 19  2  0  0  0  0
 12 13  1  0  0  0  0
 13 14  1  0  0  0  0
 13 18  2  0  0  0  0
 14 15  2  0  0  0  0
 15 16  1  0  0  0  0
 16 17  2  0  0  0  0
 17 18  1  0  0  0  0
 19 20  1  0  0  0  0
 20 21  2  0  0  0  0
 21 22  1  0  0  0  0
 21 23  1  0  0  0  0
M  END
> <MOL_ID>
12

>  <Name_of_compounds>
Fluperlapine

>  <Activity_Profiles>
1 0 0 1 0

> <INITIAL_ID>
112

> <SUM_activity>
2

$$$$
3190
  MOE2007           2D

 30 33  0  0  0  0  0  0  0  0999 V2000
    2.0510   -0.2100    0.0000 O   0  0  0  0  0  0  0  0  0  0  0  0
    2.7650   -0.6230    0.0000 C   0  0  0  0  0  0  0  0  0  0  0  0
    2.7650   -1.4480    0.0000 C   0  0  0  0  0  0  0  0  0  0  0  0
    3.4330   -1.9320    0.0000 N   0  0  0  0  0  0  0  0  0  0  0  0
    3.1780   -2.7170    0.0000 N   0  0  0  0  0  0  0  0  0  0  0  0
    3.6630   -3.3850    0.0000 C   0  0  0  0  0  0  0  0  0  0  0  0
    4.4830   -3.2980    0.0000 C   0  0  0  0  0  0  0  0  0  0  0  0
    4.9680   -3.9660    0.0000 C   0  0  0  0  0  0  0  0  0  0  0  0
    4.6330   -4.7200    0.0000 C   0  0  0  0  0  0  0  0  0  0  0  0
    5.1180   -5.3870    0.0000 Cl  0  0  0  0  0  0  0  0  0  0  0  0
    3.8120   -4.8060    0.0000 C   0  0  0  0  0  0  0  0  0  0  0  0
    3.3270   -4.1380    0.0000 C   0  0  0  0  0  0  0  0  0  0  0  0
    2.5070   -4.2240    0.0000 Cl  0  0  0  0  0  0  0  0  0  0  0  0
    2.3530   -2.7170    0.0000 C   0  0  0  0  0  0  0  0  0  0  0  0
    1.8680   -3.3850    0.0000 C   0  0  0  0  0  0  0  0  0  0  0  0
    2.2040   -4.1380    0.0000 C   0  0  0  0  0  0  0  0  0  0  0  0
    1.7190   -4.8060    0.0000 C   0  0  0  0  0  0  0  0  0  0  0  0
    0.8980   -4.7200    0.0000 C   0  0  0  0  0  0  0  0  0  0  0  0
    0.4130   -5.3870    0.0000 I   0  0  0  0  0  0  0  0  0  0  0  0
    0.5630   -3.9660    0.0000 C   0  0  0  0  0  0  0  0  0  0  0  0
    1.0480   -3.2980    0.0000 C   0  0  0  0  0  0  0  0  0  0  0  0
    2.0980   -1.9320    0.0000 C   0  0  0  0  0  0  0  0  0  0  0  0
    1.3130   -1.6780    0.0000 C   0  0  0  0  0  0  0  0  0  0  0  0
    3.4800   -0.2100    0.0000 N   0  0  0  0  0  0  0  0  0  0  0  0
    4.1940   -0.6230    0.0000 N   0  0  0  0  0  0  0  0  0  0  0  0
    4.9090   -0.2100    0.0000 C   0  0  0  0  0  0  0  0  0  0  0  0
    5.6230   -0.6230    0.0000 C   0  0  0  0  0  0  0  0  0  0  0  0
    5.6230   -1.4480    0.0000 C   0  0  0  0  0  0  0  0  0  0  0  0
    4.9090   -1.8600    0.0000 C   0  0  0  0  0  0  0  0  0  0  0  0
    4.1940   -1.4480    0.0000 C   0  0  0  0  0  0  0  0  0  0  0  0
  1  2  2  0  0  0  0
  2  3  1  0  0  0  0
  2 24  1  0  0  0  0
  3  4  2  0  0  0  0
  3 22  1  0  0  0  0
  4  5  1  0  0  0  0
  5  6  1  0  0  0  0
  5 14  1  0  0  0  0
  6  7  1  0  0  0  0
  6 12  2  0  0  0  0
  7  8  2  0  0  0  0
  8  9  1  0  0  0  0
  9 10  1  0  0  0  0
  9 11  2  0  0  0  0
 11 12  1  0  0  0  0
 12 13  1  0  0  0  0
 14 15  1  0  0  0  0
 14 22  2  0  0  0  0
 15 16  1  0  0  0  0
 15 21  2  0  0  0  0
 16 17  2  0  0  0  0
 17 18  1  0  0  0  0
 18 19  1  0  0  0  0
 18 20  2  0  0  0  0
 20 21  1  0  0  0  0
 22 23  1  0  0  0  0
 24 25  1  0  0  0  0
 25 26  1  0  0  0  0
 25 30  1  0  0  0  0
 26 27  1  0  0  0  0
 27 28  1  0  0  0  0
 28 29  1  0  0  0  0
 29 30  1  0  0  0  0
M  END
> <MOL_ID>
130

>  <Name_of_compounds>
AM 251

>  <Activity_Profiles>
1 0 0 0 1

> <INITIAL_ID>
3190

> <SUM_activity>
2

$$$$
5052
  MOE2007           2D

 29 30  0  0  0  0  0  0  0  0999 V2000
    3.3010    0.3130    0.0000 C   0  0  0  0  0  0  0  0  0  0  0  0
    3.3010   -0.5120    0.0000 C   0  0  0  0  0  0  0  0  0  0  0  0
    4.0160   -0.9250    0.0000 C   0  0  0  0  0  0  0  0  0  0  0  0
    2.5870   -0.9250    0.0000 C   0  0  0  0  0  0  0  0  0  0  0  0
    2.5870   -1.7500    0.0000 C   0  0  0  0  0  0  0  0  0  0  0  0
    1.8720   -2.1620    0.0000 C   0  0  0  0  0  0  0  0  0  0  0  0
    1.1580   -1.7500    0.0000 C   0  0  0  0  0  0  0  0  0  0  0  0
    1.1580   -0.9250    0.0000 C   0  0  0  0  0  0  0  0  0  0  0  0
    1.8720   -0.5120    0.0000 C   0  0  0  0  0  0  0  0  0  0  0  0
    1.8720    0.3130    0.0000 O   0  0  0  0  0  0  0  0  0  0  0  0
    0.4440   -0.5120    0.0000 C   0  0  0  0  0  0  0  0  0  0  0  0
    0.4440    0.3130    0.0000 C   0  0  0  0  0  0  0  0  0  0  0  0
   -0.2710   -0.9250    0.0000 C   0  0  0  0  0  0  0  0  0  0  0  0
    1.8720   -2.9870    0.0000 C   0  0  0  0  0  0  0  0  0  0  0  0
    2.5870   -3.4000    0.0000 C   0  0  0  0  0  0  0  0  0  0  0  0
    2.5870   -4.2250    0.0000 C   0  0  0  0  0  0  0  0  0  0  0  0
    2.5870   -5.0500    0.0000 N   0  0  0  0  0  0  0  0  0  0  0  0
    3.3010   -2.9870    0.0000 C   0  0  0  0  0  0  0  0  0  0  0  0
    3.3010   -2.1620    0.0000 O   0  0  0  0  0  0  0  0  0  0  0  0
    4.0160   -3.4000    0.0000 N   0  0  0  0  0  0  0  0  0  0  0  0
    4.7300   -2.9870    0.0000 C   0  0  0  0  0  0  0  0  0  0  0  0
    5.4450   -3.4000    0.0000 C   0  0  0  0  0  0  0  0  0  0  0  0
    6.1590   -2.9870    0.0000 C   0  0  0  0  0  0  0  0  0  0  0  0
    6.8740   -3.4000    0.0000 C   0  0  0  0  0  0  0  0  0  0  0  0
    7.5880   -2.9870    0.0000 C   0  0  0  0  0  0  0  0  0  0  0  0
    8.3030   -3.4000    0.0000 C   0  0  0  0  0  0  0  0  0  0  0  0
    8.3030   -4.2250    0.0000 C   0  0  0  0  0  0  0  0  0  0  0  0
    7.5880   -4.6370    0.0000 C   0  0  0  0  0  0  0  0  0  0  0  0
    6.8740   -4.2250    0.0000 C   0  0  0  0  0  0  0  0  0  0  0  0
  1  2  1  0  0  0  0
  2  3  1  0  0  0  0
  2  4  1  0  0  0  0
  4  5  1  0  0  0  0
  4  9  2  0  0  0  0
  5  6  2  0  0  0  0
  6  7  1  0  0  0  0
  6 14  1  0  0  0  0
  7  8  2  0  0  0  0
  8  9  1  0  0  0  0
  8 11  1  0  0  0  0
  9 10  1  0  0  0  0
 11 12  1  0  0  0  0
 11 13  1  0  0  0  0
 14 15  2  0  0  0  0
 15 16  1  0  0  0  0
 15 18  1  0  0  0  0
 16 17  3  0  0  0  0
 18 19  2  0  0  0  0
 18 20  1  0  0  0  0
 20 21  1  0  0  0  0
 21 22  1  0  0  0  0
 22 23  1  0  0  0  0
 23 24  1  0  0  0  0
 24 25  1  0  0  0  0
 24 29  2  0  0  0  0
 25 26  2  0  0  0  0
 26 27  1  0  0  0  0
 27 28  2  0  0  0  0
 28 29  1  0  0  0  0
M  END
> <MOL_ID>
140

>  <Name_of_compounds>
SU1498

>  <Activity_Profiles>
1 0 0 0 1

> <INITIAL_ID>
5052

> <SUM_activity>
2

$$$$
2103
  MOE2007           2D

 49 53  0  0  1  0  0  0  0  0999 V2000
    6.5780   -6.9410    0.0000 C   0  0  0  0  0  0  0  0  0  0  0  0
    6.1650   -6.2260    0.0000 C   0  0  0  0  0  0  0  0  0  0  0  0
    6.8800   -5.8140    0.0000 C   0  0  0  0  0  0  0  0  0  0  0  0
    5.7530   -5.5120    0.0000 C   0  0  0  0  0  0  0  0  0  0  0  0
    5.4510   -6.6390    0.0000 N   0  0  0  0  0  0  0  0  0  0  0  0
    4.7360   -6.2260    0.0000 C   0  0  0  0  0  0  0  0  0  0  0  0
    4.7360   -5.4010    0.0000 O   0  0  0  0  0  0  0  0  0  0  0  0
    4.0220   -6.6390    0.0000 C   0  0  3  0  0  0  0  0  0  0  0  0
    3.3070   -6.2260    0.0000 C   0  0  0  0  0  0  0  0  0  0  0  0
    2.5930   -6.6390    0.0000 C   0  0  3  0  0  0  0  0  0  0  0  0
    1.8780   -6.2260    0.0000 C   0  0  0  0  0  0  0  0  0  0  0  0
    1.1640   -6.6390    0.0000 C   0  0  0  0  0  0  0  0  0  0  0  0
    1.1640   -7.4640    0.0000 C   0  0  0  0  0  0  0  0  0  0  0  0
    1.8780   -7.8760    0.0000 C   0  0  0  0  0  0  0  0  0  0  0  0
    2.5930   -7.4640    0.0000 C   0  0  3  0  0  0  0  0  0  0  0  0
    3.3070   -7.8760    0.0000 C   0  0  0  0  0  0  0  0  0  0  0  0
    4.0220   -7.4640    0.0000 N   0  0  0  0  0  0  0  0  0  0  0  0
    4.7360   -7.8760    0.0000 C   0  0  0  0  0  0  0  0  0  0  0  0
    5.4510   -7.4640    0.0000 C   0  0  3  0  0  0  0  0  0  0  0  0
    6.1650   -7.8760    0.0000 C   0  0  3  0  0  0  0  0  0  0  0  0
    6.1650   -8.7010    0.0000 C   0  0  0  0  0  0  0  0  0  0  0  0
    5.4510   -9.1140    0.0000 C   0  0  0  0  0  0  0  0  0  0  0  0
    5.4510   -9.9390    0.0000 C   0  0  0  0  0  0  0  0  0  0  0  0
    4.7360  -10.3510    0.0000 C   0  0  0  0  0  0  0  0  0  0  0  0
    4.0220   -9.9390    0.0000 C   0  0  0  0  0  0  0  0  0  0  0  0
    4.0220   -9.1140    0.0000 C   0  0  0  0  0  0  0  0  0  0  0  0
    4.7360   -8.7010    0.0000 C   0  0  0  0  0  0  0  0  0  0  0  0
    6.8800   -7.4640    0.0000 N   0  0  0  0  0  0  0  0  0  0  0  0
    7.5940   -7.8760    0.0000 C   0  0  0  0  0  0  0  0  0  0  0  0
    7.5940   -8.7010    0.0000 O   0  0  0  0  0  0  0  0  0  0  0  0
    8.3090   -7.4640    0.0000 C   0  0  3  0  0  0  0  0  0  0  0  0
    8.3090   -6.6390    0.0000 C   0  0  0  0  0  0  0  0  0  0  0  0
    7.5940   -6.2260    0.0000 C   0  0  0  0  0  0  0  0  0  0  0  0
    6.8800   -6.6390    0.0000 O   0  0  0  0  0  0  0  0  0  0  0  0
    7.5940   -5.4010    0.0000 N   0  0  0  0  0  0  0  0  0  0  0  0
    9.0230   -7.8760    0.0000 N   0  0  0  0  0  0  0  0  0  0  0  0
    9.7380   -7.4640    0.0000 C   0  0  0  0  0  0  0  0  0  0  0  0
    9.7380   -6.6390    0.0000 O   0  0  0  0  0  0  0  0  0  0  0  0
   10.4520   -7.8760    0.0000 C   0  0  0  0  0  0  0  0  0  0  0  0
   11.1670   -7.4640    0.0000 N   0  0  0  0  0  0  0  0  0  0  0  0
   11.8810   -7.8760    0.0000 C   0  0  0  0  0  0  0  0  0  0  0  0
   12.5960   -7.4640    0.0000 C   0  0  0  0  0  0  0  0  0  0  0  0
   13.3100   -7.8760    0.0000 C   0  0  0  0  0  0  0  0  0  0  0  0
   13.3100   -8.7010    0.0000 C   0  0  0  0  0  0  0  0  0  0  0  0
   12.5960   -9.1140    0.0000 C   0  0  0  0  0  0  0  0  0  0  0  0
   11.8810   -8.7010    0.0000 C   0  0  0  0  0  0  0  0  0  0  0  0
   11.1670   -9.1140    0.0000 C   0  0  0  0  0  0  0  0  0  0  0  0
   10.4520   -8.7010    0.0000 C   0  0  0  0  0  0  0  0  0  0  0  0
    5.9360   -6.7960    0.0000 O   0  0  0  0  0  0  0  0  0  0  0  0
  1  2  1  0  0  0  0
  2  3  1  0  0  0  0
  2  4  1  0  0  0  0
  2  5  1  0  0  0  0
  5  6  1  0  0  0  0
  6  7  2  0  0  0  0
  6  8  1  0  0  0  0
  8  9  1  0  0  0  0
  8 17  1  0  0  0  0
  9 10  1  0  0  0  0
 10 11  1  0  0  0  0
 10 15  1  0  0  0  0
 11 12  1  0  0  0  0
 12 13  1  0  0  0  0
 13 14  1  0  0  0  0
 14 15  1  0  0  0  0
 15 16  1  0  0  0  0
 16 17  1  0  0  0  0
 17 18  1  0  0  0  0
 18 19  1  0  0  0  0
 19 20  1  0  0  0  0
 19 49  1  0  0  0  0
 20 21  1  0  0  0  0
 20 28  1  0  0  0  0
 21 22  1  0  0  0  0
 22 23  1  0  0  0  0
 22 27  2  0  0  0  0
 23 24  2  0  0  0  0
 24 25  1  0  0  0  0
 25 26  2  0  0  0  0
 26 27  1  0  0  0  0
 28 29  1  0  0  0  0
 29 30  2  0  0  0  0
 29 31  1  0  0  0  0
 31 32  1  0  0  0  0
 31 36  1  0  0  0  0
 32 33  1  0  0  0  0
 33 34  2  0  0  0  0
 33 35  1  0  0  0  0
 36 37  1  0  0  0  0
 37 38  2  0  0  0  0
 37 39  1  0  0  0  0
 39 40  1  0  0  0  0
 39 48  2  0  0  0  0
 40 41  2  0  0  0  0
 41 42  1  0  0  0  0
 41 46  1  0  0  0  0
 42 43  2  0  0  0  0
 43 44  1  0  0  0  0
 44 45  2  0  0  0  0
 45 46  1  0  0  0  0
 46 47  2  0  0  0  0
 47 48  1  0  0  0  0
M  END
> <MOL_ID>
116

>  <Name_of_compounds>
Saquinavir mesylate

>  <Activity_Profiles>
0 1 0 0 1

> <INITIAL_ID>
2103

> <SUM_activity>
2

$$$$
1328
  MOE2007           2D

 20 22  0  0  1  0  0  0  0  0999 V2000
    4.7900    3.6540    0.0000 C   0  0  0  0  0  0  0  0  0  0  0  0
    3.9650    3.6540    0.0000 N   0  0  0  0  0  0  0  0  0  0  0  0
    3.6070    2.9110    0.0000 C   0  0  0  0  0  0  0  0  0  0  0  0
    2.8030    2.7280    0.0000 C   0  0  0  0  0  0  0  0  0  0  0  0
    2.1580    3.2420    0.0000 C   0  0  0  0  0  0  0  0  0  0  0  0
    1.4430    2.8300    0.0000 C   0  0  0  0  0  0  0  0  0  0  0  0
    0.7290    3.2420    0.0000 C   0  0  0  0  0  0  0  0  0  0  0  0
    0.7290    4.0670    0.0000 C   0  0  0  0  0  0  0  0  0  0  0  0
    1.4430    4.4800    0.0000 C   0  0  0  0  0  0  0  0  0  0  0  0
    2.1580    4.0670    0.0000 C   0  0  0  0  0  0  0  0  0  0  0  0
    2.8030    4.5810    0.0000 C   0  0  3  0  0  0  0  0  0  0  0  0
    3.6070    4.3980    0.0000 C   0  0  0  0  0  0  0  0  0  0  0  0
    2.6190    5.3860    0.0000 C   0  0  0  0  0  0  0  0  0  0  0  0
    1.8310    5.6290    0.0000 C   0  0  0  0  0  0  0  0  0  0  0  0
    1.6470    6.4330    0.0000 C   0  0  0  0  0  0  0  0  0  0  0  0
    2.2520    6.9940    0.0000 C   0  0  0  0  0  0  0  0  0  0  0  0
    3.0400    6.7510    0.0000 C   0  0  0  0  0  0  0  0  0  0  0  0
    3.2240    5.9470    0.0000 C   0  0  0  0  0  0  0  0  0  0  0  0
    0.0140    4.4800    0.0000 O   0  0  0  0  0  0  0  0  0  0  0  0
    0.0140    2.8300    0.0000 O   0  0  0  0  0  0  0  0  0  0  0  0
  1  2  1  0  0  0  0
  2  3  1  0  0  0  0
  2 12  1  0  0  0  0
  3  4  1  0  0  0  0
  4  5  1  0  0  0  0
  5  6  1  0  0  0  0
  5 10  2  0  0  0  0
  6  7  2  0  0  0  0
  7  8  1  0  0  0  0
  7 20  1  0  0  0  0
  8  9  2  0  0  0  0
  8 19  1  0  0  0  0
  9 10  1  0  0  0  0
 10 11  1  0  0  0  0
 11 12  1  0  0  0  0
 11 13  1  0  0  0  0
 13 14  1  0  0  0  0
 13 18  2  0  0  0  0
 14 15  2  0  0  0  0
 15 16  1  0  0  0  0
 16 17  2  0  0  0  0
 17 18  1  0  0  0  0
M  END
> <MOL_ID>
73

>  <Name_of_compounds>
SKF 75670

>  <Activity_Profiles>
1 0 0 0 1

> <INITIAL_ID>
1328

> <SUM_activity>
2

$$$$
3251
  MOE2007           2D

 30 33  0  0  0  0  0  0  0  0999 V2000
    0.6660   -0.5920    0.0000 C   0  0  0  0  0  0  0  0  0  0  0  0
    0.6660   -1.4170    0.0000 C   0  0  0  0  0  0  0  0  0  0  0  0
    1.3340   -1.9020    0.0000 C   0  0  0  0  0  0  0  0  0  0  0  0
    1.0790   -2.6860    0.0000 N   0  0  0  0  0  0  0  0  0  0  0  0
    0.2540   -2.6860    0.0000 N   0  0  0  0  0  0  0  0  0  0  0  0
   -0.0010   -1.9020    0.0000 C   0  0  0  0  0  0  0  0  0  0  0  0
   -0.7860   -1.6470    0.0000 C   0  0  0  0  0  0  0  0  0  0  0  0
   -0.9570   -0.8400    0.0000 O   0  0  0  0  0  0  0  0  0  0  0  0
   -1.3990   -2.1990    0.0000 N   0  0  0  0  0  0  0  0  0  0  0  0
   -2.1830   -1.9440    0.0000 N   0  0  0  0  0  0  0  0  0  0  0  0
   -2.7960   -2.4960    0.0000 C   0  0  0  0  0  0  0  0  0  0  0  0
   -3.5810   -2.2410    0.0000 C   0  0  0  0  0  0  0  0  0  0  0  0
   -3.7520   -1.4340    0.0000 C   0  0  0  0  0  0  0  0  0  0  0  0
   -3.1390   -0.8820    0.0000 C   0  0  0  0  0  0  0  0  0  0  0  0
   -2.3550   -1.1370    0.0000 C   0  0  0  0  0  0  0  0  0  0  0  0
    1.5640   -3.3540    0.0000 C   0  0  0  0  0  0  0  0  0  0  0  0
    2.3840   -3.2670    0.0000 C   0  0  0  0  0  0  0  0  0  0  0  0
    2.8690   -3.9350    0.0000 C   0  0  0  0  0  0  0  0  0  0  0  0
    2.5340   -4.6880    0.0000 C   0  0  0  0  0  0  0  0  0  0  0  0
    1.7130   -4.7750    0.0000 C   0  0  0  0  0  0  0  0  0  0  0  0
    1.2280   -4.1070    0.0000 C   0  0  0  0  0  0  0  0  0  0  0  0
    3.0190   -5.3560    0.0000 Cl  0  0  0  0  0  0  0  0  0  0  0  0
    2.7200   -2.5140    0.0000 Cl  0  0  0  0  0  0  0  0  0  0  0  0
    2.1190   -1.6470    0.0000 C   0  0  0  0  0  0  0  0  0  0  0  0
    2.2900   -0.8400    0.0000 C   0  0  0  0  0  0  0  0  0  0  0  0
    3.0750   -0.5850    0.0000 C   0  0  0  0  0  0  0  0  0  0  0  0
    3.6880   -1.1370    0.0000 C   0  0  0  0  0  0  0  0  0  0  0  0
    3.5160   -1.9440    0.0000 C   0  0  0  0  0  0  0  0  0  0  0  0
    2.7320   -2.1990    0.0000 C   0  0  0  0  0  0  0  0  0  0  0  0
    4.4720   -0.8820    0.0000 Cl  0  0  0  0  0  0  0  0  0  0  0  0
  1  2  1  0  0  0  0
  2  3  2  0  0  0  0
  2  6  1  0  0  0  0
  3  4  1  0  0  0  0
  3 24  1  0  0  0  0
  4  5  1  0  0  0  0
  4 16  1  0  0  0  0
  5  6  2  0  0  0  0
  6  7  1  0  0  0  0
  7  8  2  0  0  0  0
  7  9  1  0  0  0  0
  9 10  1  0  0  0  0
 10 11  1  0  0  0  0
 10 15  1  0  0  0  0
 11 12  1  0  0  0  0
 12 13  1  0  0  0  0
 13 14  1  0  0  0  0
 14 15  1  0  0  0  0
 16 17  1  0  0  0  0
 16 21  2  0  0  0  0
 17 18  2  0  0  0  0
 17 23  1  0  0  0  0
 18 19  1  0  0  0  0
 19 20  2  0  0  0  0
 19 22  1  0  0  0  0
 20 21  1  0  0  0  0
 24 25  1  0  0  0  0
 24 29  2  0  0  0  0
 25 26  2  0  0  0  0
 26 27  1  0  0  0  0
 27 28  2  0  0  0  0
 27 30  1  0  0  0  0
 28 29  1  0  0  0  0
M  END
> <MOL_ID>
134

>  <Name_of_compounds>
Rimonabant

>  <Activity_Profiles>
1 0 0 0 1

> <INITIAL_ID>
3251

> <SUM_activity>
2

$$$$
685
  MOE2007           2D

 16 17  0  0  1  0  0  0  0  0999 V2000
    1.0720   -0.2580    0.0000 C   0  0  0  0  0  0  0  0  0  0  0  0
    1.0720   -1.0830    0.0000 C   0  0  0  0  0  0  0  0  0  0  0  0
    1.7860   -1.4950    0.0000 C   0  0  0  0  0  0  0  0  0  0  0  0
    1.7860   -2.3200    0.0000 N   0  0  0  0  0  0  0  0  0  0  0  0
    2.5010   -2.7330    0.0000 C   0  0  0  0  0  0  0  0  0  0  0  0
    2.5010   -3.5580    0.0000 C   0  0  1  0  0  0  0  0  0  0  0  0
    3.2150   -3.9700    0.0000 C   0  0  0  0  0  0  0  0  0  0  0  0
    3.9300   -3.5580    0.0000 C   0  0  0  0  0  0  0  0  0  0  0  0
    4.6440   -3.9700    0.0000 C   0  0  0  0  0  0  0  0  0  0  0  0
    4.6440   -4.7950    0.0000 C   0  0  0  0  0  0  0  0  0  0  0  0
    3.9300   -5.2080    0.0000 C   0  0  0  0  0  0  0  0  0  0  0  0
    3.9300   -6.0330    0.0000 O   0  0  0  0  0  0  0  0  0  0  0  0
    3.2150   -4.7950    0.0000 C   0  0  0  0  0  0  0  0  0  0  0  0
    1.7860   -3.9700    0.0000 C   0  0  0  0  0  0  0  0  0  0  0  0
    1.0720   -3.5580    0.0000 C   0  0  0  0  0  0  0  0  0  0  0  0
    1.0720   -2.7330    0.0000 C   0  0  0  0  0  0  0  0  0  0  0  0
  1  2  1  0  0  0  0
  2  3  1  0  0  0  0
  3  4  1  0  0  0  0
  4  5  1  0  0  0  0
  4 16  1  0  0  0  0
  5  6  1  0  0  0  0
  6  7  1  0  0  0  0
  6 14  1  1  0  0  0
  7  8  1  0  0  0  0
  7 13  2  0  0  0  0
  8  9  2  0  0  0  0
  9 10  1  0  0  0  0
 10 11  2  0  0  0  0
 11 12  1  0  0  0  0
 11 13  1  0  0  0  0
 14 15  1  0  0  0  0
 15 16  1  0  0  0  0
M  END
> <MOL_ID>
50

>  <Name_of_compounds>
(R)-(+)-3-(3-Hydroxyphenyl)-N-propylpiperidine

>  <Activity_Profiles>
0 1 1 1 0

> <INITIAL_ID>
685

> <SUM_activity>
3

$$$$
679
  MOE2007           2D

 29 31  0  0  0  0  0  0  0  0999 V2000
   -4.6810   -4.0680    0.0000 C   0  0  0  0  0  0  0  0  0  0  0  0
   -4.6810   -4.8930    0.0000 C   0  0  0  0  0  0  0  0  0  0  0  0
   -5.3960   -5.3060    0.0000 C   0  0  0  0  0  0  0  0  0  0  0  0
   -5.3960   -6.1310    0.0000 C   0  0  0  0  0  0  0  0  0  0  0  0
   -6.1100   -6.5430    0.0000 C   0  0  0  0  0  0  0  0  0  0  0  0
   -6.1100   -7.3680    0.0000 C   0  0  0  0  0  0  0  0  0  0  0  0
   -6.8240   -7.7810    0.0000 C   0  0  0  0  0  0  0  0  0  0  0  0
   -7.5390   -7.3680    0.0000 C   0  0  0  0  0  0  0  0  0  0  0  0
   -7.5390   -6.5430    0.0000 C   0  0  0  0  0  0  0  0  0  0  0  0
   -6.8240   -6.1310    0.0000 C   0  0  0  0  0  0  0  0  0  0  0  0
   -4.6810   -6.5430    0.0000 C   0  0  0  0  0  0  0  0  0  0  0  0
   -3.9660   -6.1310    0.0000 C   0  0  0  0  0  0  0  0  0  0  0  0
   -3.2520   -6.5430    0.0000 C   0  0  0  0  0  0  0  0  0  0  0  0
   -3.2520   -7.3680    0.0000 C   0  0  0  0  0  0  0  0  0  0  0  0
   -3.9660   -7.7810    0.0000 C   0  0  0  0  0  0  0  0  0  0  0  0
   -4.6810   -7.3680    0.0000 C   0  0  0  0  0  0  0  0  0  0  0  0
   -2.5380   -7.7810    0.0000 O   0  0  0  0  0  0  0  0  0  0  0  0
   -1.8230   -7.3680    0.0000 C   0  0  0  0  0  0  0  0  0  0  0  0
   -1.1090   -7.7810    0.0000 C   0  0  0  0  0  0  0  0  0  0  0  0
   -0.3940   -7.3680    0.0000 N   0  0  0  0  0  0  0  0  0  0  0  0
   -0.3940   -6.5430    0.0000 C   0  0  0  0  0  0  0  0  0  0  0  0
    0.3200   -7.7810    0.0000 C   0  0  0  0  0  0  0  0  0  0  0  0
   -6.1100   -4.8930    0.0000 C   0  0  0  0  0  0  0  0  0  0  0  0
   -6.8240   -5.3060    0.0000 C   0  0  0  0  0  0  0  0  0  0  0  0
   -7.5390   -4.8930    0.0000 C   0  0  0  0  0  0  0  0  0  0  0  0
   -7.5390   -4.0680    0.0000 C   0  0  0  0  0  0  0  0  0  0  0  0
   -6.8240   -3.6560    0.0000 C   0  0  0  0  0  0  0  0  0  0  0  0
   -6.1100   -4.0680    0.0000 C   0  0  0  0  0  0  0  0  0  0  0  0
   -8.2530   -3.6560    0.0000 O   0  0  0  0  0  0  0  0  0  0  0  0
  1  2  1  0  0  0  0
  2  3  1  0  0  0  0
  3  4  2  0  0  0  0
  3 23  1  0  0  0  0
  4  5  1  0  0  0  0
  4 11  1  0  0  0  0
  5  6  1  0  0  0  0
  5 10  2  0  0  0  0
  6  7  2  0  0  0  0
  7  8  1  0  0  0  0
  8  9  2  0  0  0  0
  9 10  1  0  0  0  0
 11 12  1  0  0  0  0
 11 16  2  0  0  0  0
 12 13  2  0  0  0  0
 13 14  1  0  0  0  0
 14 15  2  0  0  0  0
 14 17  1  0  0  0  0
 15 16  1  0  0  0  0
 17 18  1  0  0  0  0
 18 19  1  0  0  0  0
 19 20  1  0  0  0  0
 20 21  1  0  0  0  0
 20 22  1  0  0  0  0
 23 24  1  0  0  0  0
 23 28  2  0  0  0  0
 24 25  2  0  0  0  0
 25 26  1  0  0  0  0
 26 27  2  0  0  0  0
 26 29  1  0  0  0  0
 27 28  1  0  0  0  0
M  END
> <MOL_ID>
48

>  <Name_of_compounds>
4-Hydroxy-tamoxifen

>  <Activity_Profiles>
1 0 1 0 1

> <INITIAL_ID>
679

> <SUM_activity>
3

$$$$
1316
  MOE2007           2D

 22 23  0  0  1  0  0  0  0  0999 V2000
    5.0990   -8.5690    0.0000 C   0  0  0  0  0  0  0  0  0  0  0  0
    5.8130   -8.1560    0.0000 N   0  0  0  0  0  0  0  0  0  0  0  0
    6.5280   -8.5690    0.0000 C   0  0  0  0  0  0  0  0  0  0  0  0
    7.2420   -8.1560    0.0000 C   0  0  0  0  0  0  0  0  0  0  0  0
    7.9570   -8.5690    0.0000 C   0  0  3  0  0  0  0  0  0  0  0  0
    7.9570   -9.3940    0.0000 C   0  0  0  0  0  0  0  0  0  0  0  0
    8.6710   -9.8060    0.0000 C   0  0  0  0  0  0  0  0  0  0  0  0
    8.6710  -10.6310    0.0000 C   0  0  0  0  0  0  0  0  0  0  0  0
    7.9570  -11.0440    0.0000 C   0  0  0  0  0  0  0  0  0  0  0  0
    7.2420  -10.6310    0.0000 C   0  0  0  0  0  0  0  0  0  0  0  0
    7.2420   -9.8060    0.0000 C   0  0  0  0  0  0  0  0  0  0  0  0
    8.6710   -8.1560    0.0000 O   0  0  0  0  0  0  0  0  0  0  0  0
    9.3860   -8.5690    0.0000 C   0  0  0  0  0  0  0  0  0  0  0  0
   10.1000   -8.1560    0.0000 C   0  0  0  0  0  0  0  0  0  0  0  0
   10.8140   -8.5690    0.0000 C   0  0  0  0  0  0  0  0  0  0  0  0
   10.8140   -9.3940    0.0000 C   0  0  0  0  0  0  0  0  0  0  0  0
   10.1000   -9.8060    0.0000 C   0  0  0  0  0  0  0  0  0  0  0  0
    9.3860   -9.3940    0.0000 C   0  0  0  0  0  0  0  0  0  0  0  0
   11.5290   -9.8060    0.0000 C   0  0  0  0  0  0  0  0  0  0  0  0
   11.1160  -10.5210    0.0000 F   0  0  0  0  0  0  0  0  0  0  0  0
   12.2430  -10.2190    0.0000 F   0  0  0  0  0  0  0  0  0  0  0  0
   11.9420   -9.0920    0.0000 F   0  0  0  0  0  0  0  0  0  0  0  0
  1  2  1  0  0  0  0
  2  3  1  0  0  0  0
  3  4  1  0  0  0  0
  4  5  1  0  0  0  0
  5  6  1  0  0  0  0
  5 12  1  0  0  0  0
  6  7  1  0  0  0  0
  6 11  2  0  0  0  0
  7  8  2  0  0  0  0
  8  9  1  0  0  0  0
  9 10  2  0  0  0  0
 10 11  1  0  0  0  0
 12 13  1  0  0  0  0
 13 14  1  0  0  0  0
 13 18  2  0  0  0  0
 14 15  2  0  0  0  0
 15 16  1  0  0  0  0
 16 17  2  0  0  0  0
 16 19  1  0  0  0  0
 17 18  1  0  0  0  0
 19 20  1  0  0  0  0
 19 21  1  0  0  0  0
 19 22  1  0  0  0  0
M  END
> <MOL_ID>
64

>  <Name_of_compounds>
Fluoxetine

>  <Activity_Profiles>
1 0 1 0 1

> <INITIAL_ID>
1316

> <SUM_activity>
3

$$$$
2337
  MOE2007           2D

 14 15  0  0  1  0  0  0  0  0999 V2000
    6.1760    6.2760    0.0000 C   0  0  0  0  0  0  0  0  0  0  0  0
    6.1760    5.4510    0.0000 C   0  0  0  0  0  0  0  0  0  0  0  0
    5.4620    5.0390    0.0000 C   0  0  0  0  0  0  0  0  0  0  0  0
    5.4620    4.2140    0.0000 N   0  0  0  0  0  0  0  0  0  0  0  0
    4.7470    3.8010    0.0000 C   0  0  3  0  0  0  0  0  0  0  0  0
    4.7470    2.9760    0.0000 C   0  0  0  0  0  0  0  0  0  0  0  0
    4.0330    2.5640    0.0000 C   0  0  0  0  0  0  0  0  0  0  0  0
    3.3180    2.9760    0.0000 C   0  0  0  0  0  0  0  0  0  0  0  0
    3.3180    3.8010    0.0000 C   0  0  0  0  0  0  0  0  0  0  0  0
    4.0330    4.2140    0.0000 C   0  0  0  0  0  0  0  0  0  0  0  0
    2.5340    4.0560    0.0000 S   0  0  0  0  0  0  0  0  0  0  0  0
    2.0490    3.3890    0.0000 C   0  0  0  0  0  0  0  0  0  0  0  0
    2.5340    2.7220    0.0000 N   0  0  0  0  0  0  0  0  0  0  0  0
    1.2240    3.3890    0.0000 N   0  0  0  0  0  0  0  0  0  0  0  0
  1  2  1  0  0  0  0
  2  3  1  0  0  0  0
  3  4  1  0  0  0  0
  4  5  1  0  0  0  0
  5  6  1  0  0  0  0
  5 10  1  0  0  0  0
  6  7  1  0  0  0  0
  7  8  1  0  0  0  0
  8  9  2  0  0  0  0
  8 13  1  0  0  0  0
  9 10  1  0  0  0  0
  9 11  1  0  0  0  0
 11 12  1  0  0  0  0
 12 13  2  0  0  0  0
 12 14  1  0  0  0  0
M  END
> <MOL_ID>
120

>  <Name_of_compounds>
Pramipexole

>  <Activity_Profiles>
0 1 1 1 0

> <INITIAL_ID>
2337

> <SUM_activity>
3

$$$$
107
  MOE2007           2D

 23 24  0  0  1  0  0  0  0  0999 V2000
    1.5600   -1.6140    0.0000 C   0  0  0  0  0  0  0  0  0  0  0  0
    2.2750   -2.0270    0.0000 C   0  0  0  0  0  0  0  0  0  0  0  0
    2.2750   -2.8520    0.0000 N   0  0  0  0  0  0  0  0  0  0  0  0
    2.9420   -3.3370    0.0000 C   0  0  0  0  0  0  0  0  0  0  0  0
    2.6870   -4.1210    0.0000 C   0  0  0  0  0  0  0  0  0  0  0  0
    1.8620   -4.1210    0.0000 C   0  0  0  0  0  0  0  0  0  0  0  0
    1.6070   -3.3370    0.0000 C   0  0  3  0  0  0  0  0  0  0  0  0
    0.8230   -3.0820    0.0000 C   0  0  0  0  0  0  0  0  0  0  0  0
    0.6510   -2.2750    0.0000 N   0  0  0  0  0  0  0  0  0  0  0  0
   -0.1340   -2.0200    0.0000 C   0  0  0  0  0  0  0  0  0  0  0  0
   -0.7470   -2.5720    0.0000 O   0  0  0  0  0  0  0  0  0  0  0  0
   -0.3050   -1.2130    0.0000 C   0  0  0  0  0  0  0  0  0  0  0  0
   -1.0900   -0.9580    0.0000 C   0  0  0  0  0  0  0  0  0  0  0  0
   -1.2610   -0.1510    0.0000 C   0  0  0  0  0  0  0  0  0  0  0  0
   -0.6480    0.4010    0.0000 C   0  0  0  0  0  0  0  0  0  0  0  0
    0.1360    0.1460    0.0000 C   0  0  0  0  0  0  0  0  0  0  0  0
    0.3080   -0.6610    0.0000 C   0  0  0  0  0  0  0  0  0  0  0  0
    0.7500    0.6980    0.0000 S   0  0  0  0  0  0  0  0  0  0  0  0
    1.3020    0.0850    0.0000 O   0  0  0  0  0  0  0  0  0  0  0  0
    1.3630    1.2500    0.0000 O   0  0  0  0  0  0  0  0  0  0  0  0
    0.1980    1.3110    0.0000 N   0  0  0  0  0  0  0  0  0  0  0  0
   -1.7030   -1.5100    0.0000 O   0  0  0  0  0  0  0  0  0  0  0  0
   -2.4880   -1.2550    0.0000 C   0  0  0  0  0  0  0  0  0  0  0  0
  1  2  1  0  0  0  0
  2  3  1  0  0  0  0
  3  4  1  0  0  0  0
  3  7  1  0  0  0  0
  4  5  1  0  0  0  0
  5  6  1  0  0  0  0
  6  7  1  0  0  0  0
  7  8  1  0  0  0  0
  8  9  1  0  0  0  0
  9 10  1  0  0  0  0
 10 11  2  0  0  0  0
 10 12  1  0  0  0  0
 12 13  1  0  0  0  0
 12 17  2  0  0  0  0
 13 14  2  0  0  0  0
 13 22  1  0  0  0  0
 14 15  1  0  0  0  0
 15 16  2  0  0  0  0
 16 17  1  0  0  0  0
 16 18  1  0  0  0  0
 18 19  2  0  0  0  0
 18 20  2  0  0  0  0
 18 21  1  0  0  0  0
 22 23  1  0  0  0  0
M  END
> <MOL_ID>
7

>  <Name_of_compounds>
Sulpride

>  <Activity_Profiles>
0 1 1 1 0

> <INITIAL_ID>
107

> <SUM_activity>
3

$$$$
1897
  MOE2007           2D

 22 25  0  0  0  0  0  0  0  0999 V2000
    4.6180    4.9930    0.0000 C   0  0  0  0  0  0  0  0  0  0  0  0
    4.9760    4.2500    0.0000 N   0  0  0  0  0  0  0  0  0  0  0  0
    5.7990    4.1880    0.0000 C   0  0  0  0  0  0  0  0  0  0  0  0
    6.1570    3.4450    0.0000 C   0  0  0  0  0  0  0  0  0  0  0  0
    5.6920    2.7630    0.0000 N   0  0  0  0  0  0  0  0  0  0  0  0
    4.8700    2.8250    0.0000 C   0  0  0  0  0  0  0  0  0  0  0  0
    4.5120    3.5680    0.0000 C   0  0  0  0  0  0  0  0  0  0  0  0
    6.0500    2.0200    0.0000 C   0  0  0  0  0  0  0  0  0  0  0  0
    6.8750    2.0200    0.0000 N   0  0  0  0  0  0  0  0  0  0  0  0
    7.3900    1.3750    0.0000 C   0  0  0  0  0  0  0  0  0  0  0  0
    8.1780    1.6180    0.0000 C   0  0  0  0  0  0  0  0  0  0  0  0
    8.7830    1.0570    0.0000 C   0  0  0  0  0  0  0  0  0  0  0  0
    8.5990    0.2530    0.0000 C   0  0  0  0  0  0  0  0  0  0  0  0
    7.8110    0.0100    0.0000 C   0  0  0  0  0  0  0  0  0  0  0  0
    7.2060    0.5710    0.0000 C   0  0  0  0  0  0  0  0  0  0  0  0
    6.4630    0.2130    0.0000 C   0  0  0  0  0  0  0  0  0  0  0  0
    5.7190    0.5710    0.0000 C   0  0  0  0  0  0  0  0  0  0  0  0
    5.1150    0.0100    0.0000 C   0  0  0  0  0  0  0  0  0  0  0  0
    4.3260    0.2530    0.0000 C   0  0  0  0  0  0  0  0  0  0  0  0
    4.1430    1.0570    0.0000 C   0  0  0  0  0  0  0  0  0  0  0  0
    4.7480    1.6180    0.0000 C   0  0  0  0  0  0  0  0  0  0  0  0
    5.5360    1.3750    0.0000 C   0  0  0  0  0  0  0  0  0  0  0  0
  1  2  1  0  0  0  0
  2  3  1  0  0  0  0
  2  7  1  0  0  0  0
  3  4  1  0  0  0  0
  4  5  1  0  0  0  0
  5  6  1  0  0  0  0
  5  8  1  0  0  0  0
  6  7  1  0  0  0  0
  8  9  2  0  0  0  0
  8 22  1  0  0  0  0
  9 10  1  0  0  0  0
 10 11  1  0  0  0  0
 10 15  2  0  0  0  0
 11 12  2  0  0  0  0
 12 13  1  0  0  0  0
 13 14  2  0  0  0  0
 14 15  1  0  0  0  0
 15 16  1  0  0  0  0
 16 17  1  0  0  0  0
 17 18  1  0  0  0  0
 17 22  2  0  0  0  0
 18 19  2  0  0  0  0
 19 20  1  0  0  0  0
 20 21  2  0  0  0  0
 21 22  1  0  0  0  0
M  END
> <MOL_ID>
106

>  <Name_of_compounds>
Perlapine

>  <Activity_Profiles>
1 1 1 1 0

> <INITIAL_ID>
1897

> <SUM_activity>
4

$$$$
7599
  MOE2007           2D

 22 23  0  0  0  0  0  0  0  0999 V2000
   -3.1840   -5.1490    0.0000 N   0  0  0  0  0  0  0  0  0  0  0  0
   -3.1840   -4.3240    0.0000 C   0  0  0  0  0  0  0  0  0  0  0  0
   -3.8980   -3.9110    0.0000 N   0  0  0  0  0  0  0  0  0  0  0  0
   -4.6120   -4.3240    0.0000 N   0  0  0  0  0  0  0  0  0  0  0  0
   -4.6120   -5.1490    0.0000 C   0  0  0  0  0  0  0  0  0  0  0  0
   -5.3270   -5.5610    0.0000 C   0  0  0  0  0  0  0  0  0  0  0  0
   -6.0810   -5.2260    0.0000 C   0  0  0  0  0  0  0  0  0  0  0  0
   -6.6330   -5.8390    0.0000 N   0  0  0  0  0  0  0  0  0  0  0  0
   -6.2200   -6.5530    0.0000 C   0  0  0  0  0  0  0  0  0  0  0  0
   -5.4130   -6.3820    0.0000 C   0  0  0  0  0  0  0  0  0  0  0  0
   -4.8610   -6.9950    0.0000 C   0  0  0  0  0  0  0  0  0  0  0  0
   -5.1160   -7.7800    0.0000 C   0  0  0  0  0  0  0  0  0  0  0  0
   -4.5640   -8.3930    0.0000 O   0  0  0  0  0  0  0  0  0  0  0  0
   -4.8190   -9.1770    0.0000 C   0  0  0  0  0  0  0  0  0  0  0  0
   -5.9230   -7.9510    0.0000 C   0  0  0  0  0  0  0  0  0  0  0  0
   -6.4750   -7.3380    0.0000 C   0  0  0  0  0  0  0  0  0  0  0  0
   -2.4690   -3.9110    0.0000 N   0  0  0  0  0  0  0  0  0  0  0  0
   -1.7550   -4.3240    0.0000 C   0  0  0  0  0  0  0  0  0  0  0  0
   -1.0400   -3.9110    0.0000 C   0  0  0  0  0  0  0  0  0  0  0  0
   -0.3260   -4.3240    0.0000 C   0  0  0  0  0  0  0  0  0  0  0  0
    0.3890   -3.9110    0.0000 C   0  0  0  0  0  0  0  0  0  0  0  0
    1.1030   -4.3240    0.0000 C   0  0  0  0  0  0  0  0  0  0  0  0
  1  2  2  0  0  0  0
  2  3  1  0  0  0  0
  2 17  1  0  0  0  0
  3  4  1  0  0  0  0
  4  5  2  0  0  0  0
  5  6  1  0  0  0  0
  6  7  2  0  0  0  0
  6 10  1  0  0  0  0
  7  8  1  0  0  0  0
  8  9  1  0  0  0  0
  9 10  1  0  0  0  0
  9 16  2  0  0  0  0
 10 11  2  0  0  0  0
 11 12  1  0  0  0  0
 12 13  1  0  0  0  0
 12 15  2  0  0  0  0
 13 14  1  0  0  0  0
 15 16  1  0  0  0  0
 17 18  1  0  0  0  0
 18 19  1  0  0  0  0
 19 20  1  0  0  0  0
 20 21  1  0  0  0  0
 21 22  1  0  0  0  0
M  END
> <MOL_ID>
141

>  <Name_of_compounds>
Tegaserod Maleate

>  <Activity_Profiles>
1 0 1 1 1

> <INITIAL_ID>
7599

> <SUM_activity>
4

$$$$
1306
  MOE2007           2D

 28 31  0  0  0  0  0  0  0  0999 V2000
    0.6140    6.4950    0.0000 C   0  0  0  0  0  0  0  0  0  0  0  0
    0.3590    7.2790    0.0000 C   0  0  0  0  0  0  0  0  0  0  0  0
    0.9110    7.8920    0.0000 N   0  0  0  0  0  0  0  0  0  0  0  0
    1.7180    7.7210    0.0000 C   0  0  0  0  0  0  0  0  0  0  0  0
    1.9730    6.9360    0.0000 C   0  0  0  0  0  0  0  0  0  0  0  0
    1.4210    6.3230    0.0000 C   0  0  0  0  0  0  0  0  0  0  0  0
    1.6760    5.5380    0.0000 N   0  0  0  0  0  0  0  0  0  0  0  0
    2.4610    5.2840    0.0000 C   0  0  0  0  0  0  0  0  0  0  0  0
    3.1750    5.6960    0.0000 C   0  0  0  0  0  0  0  0  0  0  0  0
    3.8900    5.2840    0.0000 C   0  0  0  0  0  0  0  0  0  0  0  0
    3.8900    4.4580    0.0000 C   0  0  0  0  0  0  0  0  0  0  0  0
    3.1750    4.0460    0.0000 C   0  0  0  0  0  0  0  0  0  0  0  0
    2.4610    4.4580    0.0000 C   0  0  0  0  0  0  0  0  0  0  0  0
    1.6760    4.2040    0.0000 N   0  0  0  0  0  0  0  0  0  0  0  0
    1.1910    4.8710    0.0000 C   0  0  0  0  0  0  0  0  0  0  0  0
    0.3660    4.8710    0.0000 O   0  0  0  0  0  0  0  0  0  0  0  0
    0.6560    8.6770    0.0000 C   0  0  0  0  0  0  0  0  0  0  0  0
   -0.1510    8.8480    0.0000 C   0  0  0  0  0  0  0  0  0  0  0  0
   -0.4060    9.6330    0.0000 C   0  0  0  0  0  0  0  0  0  0  0  0
   -1.2120    9.8050    0.0000 C   0  0  0  0  0  0  0  0  0  0  0  0
   -1.7640    9.1920    0.0000 O   0  0  0  0  0  0  0  0  0  0  0  0
   -1.4670   10.5890    0.0000 C   0  0  0  0  0  0  0  0  0  0  0  0
   -2.2740   10.7610    0.0000 C   0  0  0  0  0  0  0  0  0  0  0  0
   -2.5290   11.5450    0.0000 C   0  0  0  0  0  0  0  0  0  0  0  0
   -1.9770   12.1580    0.0000 C   0  0  0  0  0  0  0  0  0  0  0  0
   -1.1700   11.9870    0.0000 C   0  0  0  0  0  0  0  0  0  0  0  0
   -0.9150   11.2020    0.0000 C   0  0  0  0  0  0  0  0  0  0  0  0
   -2.2320   12.9430    0.0000 F   0  0  0  0  0  0  0  0  0  0  0  0
  1  2  1  0  0  0  0
  1  6  1  0  0  0  0
  2  3  1  0  0  0  0
  3  4  1  0  0  0  0
  3 17  1  0  0  0  0
  4  5  1  0  0  0  0
  5  6  1  0  0  0  0
  6  7  1  0  0  0  0
  7  8  1  0  0  0  0
  7 15  1  0  0  0  0
  8  9  1  0  0  0  0
  8 13  2  0  0  0  0
  9 10  2  0  0  0  0
 10 11  1  0  0  0  0
 11 12  2  0  0  0  0
 12 13  1  0  0  0  0
 13 14  1  0  0  0  0
 14 15  1  0  0  0  0
 15 16  2  0  0  0  0
 17 18  1  0  0  0  0
 18 19  1  0  0  0  0
 19 20  1  0  0  0  0
 20 21  2  0  0  0  0
 20 22  1  0  0  0  0
 22 23  1  0  0  0  0
 22 27  2  0  0  0  0
 23 24  2  0  0  0  0
 24 25  1  0  0  0  0
 25 26  2  0  0  0  0
 25 28  1  0  0  0  0
 26 27  1  0  0  0  0
M  END
> <MOL_ID>
58

>  <Name_of_compounds>
benperidol

>  <Activity_Profiles>
1 1 1 1 0

> <INITIAL_ID>
1306

> <SUM_activity>
4

$$$$
2335
  MOE2007           2D

 26 30  0  0  1  0  0  0  0  0999 V2000
    5.1640    5.3000    0.0000 C   0  0  0  0  0  0  0  0  0  0  0  0
    5.4360    4.5210    0.0000 O   0  0  0  0  0  0  0  0  0  0  0  0
    6.2460    4.3670    0.0000 C   0  0  0  0  0  0  0  0  0  0  0  0
    6.7850    4.9920    0.0000 O   0  0  0  0  0  0  0  0  0  0  0  0
    6.5180    3.5890    0.0000 C   0  0  3  0  0  0  0  0  0  0  0  0
    7.3290    3.4350    0.0000 C   0  0  3  0  0  0  0  0  0  0  0  0
    7.6010    2.6560    0.0000 C   0  0  0  0  0  0  0  0  0  0  0  0
    7.0630    2.0310    0.0000 C   0  0  0  0  0  0  0  0  0  0  0  0
    6.2520    2.1850    0.0000 C   0  0  3  0  0  0  0  0  0  0  0  0
    5.9800    2.9640    0.0000 C   0  0  3  0  0  0  0  0  0  0  0  0
    5.1690    3.1170    0.0000 C   0  0  0  0  0  0  0  0  0  0  0  0
    4.6310    2.4920    0.0000 C   0  0  3  0  0  0  0  0  0  0  0  0
    3.8200    2.6460    0.0000 C   0  0  0  0  0  0  0  0  0  0  0  0
    3.2820    2.0210    0.0000 C   0  0  0  0  0  0  0  0  0  0  0  0
    3.5540    1.2420    0.0000 C   0  0  0  0  0  0  0  0  0  0  0  0
    4.3650    1.0880    0.0000 C   0  0  0  0  0  0  0  0  0  0  0  0
    4.9030    1.7130    0.0000 N   0  0  0  0  0  0  0  0  0  0  0  0
    5.7140    1.5600    0.0000 C   0  0  0  0  0  0  0  0  0  0  0  0
    2.5210    2.3400    0.0000 C   0  0  0  0  0  0  0  0  0  0  0  0
    1.7750    1.9880    0.0000 C   0  0  0  0  0  0  0  0  0  0  0  0
    1.0970    2.4580    0.0000 C   0  0  0  0  0  0  0  0  0  0  0  0
    1.1650    3.2800    0.0000 C   0  0  0  0  0  0  0  0  0  0  0  0
    1.9110    3.6320    0.0000 C   0  0  0  0  0  0  0  0  0  0  0  0
    2.5890    3.1620    0.0000 C   0  0  0  0  0  0  0  0  0  0  0  0
    3.3920    3.3510    0.0000 N   0  0  0  0  0  0  0  0  0  0  0  0
    7.8670    4.0600    0.0000 O   0  0  0  0  0  0  0  0  0  0  0  0
  1  2  1  0  0  0  0
  2  3  1  0  0  0  0
  3  4  2  0  0  0  0
  3  5  1  0  0  0  0
  5  6  1  0  0  0  0
  5 10  1  0  0  0  0
  6  7  1  0  0  0  0
  6 26  1  0  0  0  0
  7  8  1  0  0  0  0
  8  9  1  0  0  0  0
  9 10  1  0  0  0  0
  9 18  1  0  0  0  0
 10 11  1  0  0  0  0
 11 12  1  0  0  0  0
 12 13  1  0  0  0  0
 12 17  1  0  0  0  0
 13 14  2  0  0  0  0
 13 25  1  0  0  0  0
 14 15  1  0  0  0  0
 14 19  1  0  0  0  0
 15 16  1  0  0  0  0
 16 17  1  0  0  0  0
 17 18  1  0  0  0  0
 19 20  1  0  0  0  0
 19 24  2  0  0  0  0
 20 21  2  0  0  0  0
 21 22  1  0  0  0  0
 22 23  2  0  0  0  0
 23 24  1  0  0  0  0
 24 25  1  0  0  0  0
M  END
> <MOL_ID>
119

>  <Name_of_compounds>
Yohimbine

>  <Activity_Profiles>
1 1 1 1 0

> <INITIAL_ID>
2335

> <SUM_activity>
4

$$$$
1317
  MOE2007           2D

 20 22  0  0  0  0  0  0  0  0999 V2000
    1.5480   -5.4730    0.0000 C   0  0  0  0  0  0  0  0  0  0  0  0
    2.2630   -5.8850    0.0000 N   0  0  0  0  0  0  0  0  0  0  0  0
    2.9770   -5.4730    0.0000 C   0  0  0  0  0  0  0  0  0  0  0  0
    3.6920   -5.8850    0.0000 C   0  0  0  0  0  0  0  0  0  0  0  0
    4.4060   -5.4730    0.0000 C   0  0  0  0  0  0  0  0  0  0  0  0
    5.1210   -5.8850    0.0000 N   0  0  0  0  0  0  0  0  0  0  0  0
    5.8020   -5.4210    0.0000 C   0  0  0  0  0  0  0  0  0  0  0  0
    5.6190   -4.6160    0.0000 C   0  0  0  0  0  0  0  0  0  0  0  0
    6.2240   -4.0550    0.0000 C   0  0  0  0  0  0  0  0  0  0  0  0
    7.0120   -4.2980    0.0000 C   0  0  0  0  0  0  0  0  0  0  0  0
    7.1960   -5.1030    0.0000 C   0  0  0  0  0  0  0  0  0  0  0  0
    6.5910   -5.6640    0.0000 C   0  0  0  0  0  0  0  0  0  0  0  0
    6.8920   -6.4320    0.0000 C   0  0  0  0  0  0  0  0  0  0  0  0
    6.4800   -7.1460    0.0000 C   0  0  0  0  0  0  0  0  0  0  0  0
    5.6640   -7.2690    0.0000 C   0  0  0  0  0  0  0  0  0  0  0  0
    5.4800   -8.0730    0.0000 C   0  0  0  0  0  0  0  0  0  0  0  0
    4.6920   -8.3170    0.0000 C   0  0  0  0  0  0  0  0  0  0  0  0
    4.0870   -7.7560    0.0000 C   0  0  0  0  0  0  0  0  0  0  0  0
    4.2710   -6.9510    0.0000 C   0  0  0  0  0  0  0  0  0  0  0  0
    5.0590   -6.7080    0.0000 C   0  0  0  0  0  0  0  0  0  0  0  0
  1  2  1  0  0  0  0
  2  3  1  0  0  0  0
  3  4  1  0  0  0  0
  4  5  1  0  0  0  0
  5  6  1  0  0  0  0
  6  7  1  0  0  0  0
  6 20  1  0  0  0  0
  7  8  1  0  0  0  0
  7 12  2  0  0  0  0
  8  9  2  0  0  0  0
  9 10  1  0  0  0  0
 10 11  2  0  0  0  0
 11 12  1  0  0  0  0
 12 13  1  0  0  0  0
 13 14  1  0  0  0  0
 14 15  1  0  0  0  0
 15 16  1  0  0  0  0
 15 20  2  0  0  0  0
 16 17  2  0  0  0  0
 17 18  1  0  0  0  0
 18 19  2  0  0  0  0
 19 20  1  0  0  0  0
M  END
> <MOL_ID>
65

>  <Name_of_compounds>
Desipramine

>  <Activity_Profiles>
1 1 1 0 1

> <INITIAL_ID>
1317

> <SUM_activity>
4

$$$$
678
  MOE2007           2D

 28 30  0  0  0  0  0  0  0  0999 V2000
   -4.5420   -4.0070    0.0000 C   0  0  0  0  0  0  0  0  0  0  0  0
   -4.5420   -4.8320    0.0000 C   0  0  0  0  0  0  0  0  0  0  0  0
   -5.2560   -5.2450    0.0000 C   0  0  0  0  0  0  0  0  0  0  0  0
   -5.2560   -6.0700    0.0000 C   0  0  0  0  0  0  0  0  0  0  0  0
   -5.9710   -6.4820    0.0000 C   0  0  0  0  0  0  0  0  0  0  0  0
   -5.9710   -7.3070    0.0000 C   0  0  0  0  0  0  0  0  0  0  0  0
   -6.6850   -7.7200    0.0000 C   0  0  0  0  0  0  0  0  0  0  0  0
   -7.4000   -7.3070    0.0000 C   0  0  0  0  0  0  0  0  0  0  0  0
   -7.4000   -6.4820    0.0000 C   0  0  0  0  0  0  0  0  0  0  0  0
   -6.6850   -6.0700    0.0000 C   0  0  0  0  0  0  0  0  0  0  0  0
   -4.5420   -6.4820    0.0000 C   0  0  0  0  0  0  0  0  0  0  0  0
   -3.8280   -6.0700    0.0000 C   0  0  0  0  0  0  0  0  0  0  0  0
   -3.1130   -6.4820    0.0000 C   0  0  0  0  0  0  0  0  0  0  0  0
   -3.1130   -7.3070    0.0000 C   0  0  0  0  0  0  0  0  0  0  0  0
   -3.8280   -7.7200    0.0000 C   0  0  0  0  0  0  0  0  0  0  0  0
   -4.5420   -7.3070    0.0000 C   0  0  0  0  0  0  0  0  0  0  0  0
   -2.3990   -7.7200    0.0000 O   0  0  0  0  0  0  0  0  0  0  0  0
   -1.6840   -7.3070    0.0000 C   0  0  0  0  0  0  0  0  0  0  0  0
   -0.9700   -7.7200    0.0000 C   0  0  0  0  0  0  0  0  0  0  0  0
   -0.2550   -7.3070    0.0000 N   0  0  0  0  0  0  0  0  0  0  0  0
   -0.2550   -6.4820    0.0000 C   0  0  0  0  0  0  0  0  0  0  0  0
    0.4590   -7.7200    0.0000 C   0  0  0  0  0  0  0  0  0  0  0  0
   -5.9710   -4.8320    0.0000 C   0  0  0  0  0  0  0  0  0  0  0  0
   -6.6850   -5.2450    0.0000 C   0  0  0  0  0  0  0  0  0  0  0  0
   -7.4000   -4.8320    0.0000 C   0  0  0  0  0  0  0  0  0  0  0  0
   -7.4000   -4.0070    0.0000 C   0  0  0  0  0  0  0  0  0  0  0  0
   -6.6850   -3.5950    0.0000 C   0  0  0  0  0  0  0  0  0  0  0  0
   -5.9710   -4.0070    0.0000 C   0  0  0  0  0  0  0  0  0  0  0  0
  1  2  1  0  0  0  0
  2  3  1  0  0  0  0
  3  4  2  0  0  0  0
  3 23  1  0  0  0  0
  4  5  1  0  0  0  0
  4 11  1  0  0  0  0
  5  6  1  0  0  0  0
  5 10  2  0  0  0  0
  6  7  2  0  0  0  0
  7  8  1  0  0  0  0
  8  9  2  0  0  0  0
  9 10  1  0  0  0  0
 11 12  1  0  0  0  0
 11 16  2  0  0  0  0
 12 13  2  0  0  0  0
 13 14  1  0  0  0  0
 14 15  2  0  0  0  0
 14 17  1  0  0  0  0
 15 16  1  0  0  0  0
 17 18  1  0  0  0  0
 18 19  1  0  0  0  0
 19 20  1  0  0  0  0
 20 21  1  0  0  0  0
 20 22  1  0  0  0  0
 23 24  1  0  0  0  0
 23 28  2  0  0  0  0
 24 25  2  0  0  0  0
 25 26  1  0  0  0  0
 26 27  2  0  0  0  0
 27 28  1  0  0  0  0
M  END
> <MOL_ID>
47

>  <Name_of_compounds>
Tamoxifen

>  <Activity_Profiles>
1 1 1 1 0

> <INITIAL_ID>
678

> <SUM_activity>
4

$$$$
684
  MOE2007           2D

 16 17  0  0  1  0  0  0  0  0999 V2000
    1.0720   -0.2580    0.0000 C   0  0  0  0  0  0  0  0  0  0  0  0
    1.0720   -1.0830    0.0000 C   0  0  0  0  0  0  0  0  0  0  0  0
    1.7860   -1.4950    0.0000 C   0  0  0  0  0  0  0  0  0  0  0  0
    1.7860   -2.3200    0.0000 N   0  0  0  0  0  0  0  0  0  0  0  0
    2.5010   -2.7330    0.0000 C   0  0  0  0  0  0  0  0  0  0  0  0
    2.5010   -3.5580    0.0000 C   0  0  2  0  0  0  0  0  0  0  0  0
    3.2150   -3.9700    0.0000 C   0  0  0  0  0  0  0  0  0  0  0  0
    3.9300   -3.5580    0.0000 C   0  0  0  0  0  0  0  0  0  0  0  0
    4.6440   -3.9700    0.0000 C   0  0  0  0  0  0  0  0  0  0  0  0
    4.6440   -4.7950    0.0000 C   0  0  0  0  0  0  0  0  0  0  0  0
    3.9300   -5.2080    0.0000 C   0  0  0  0  0  0  0  0  0  0  0  0
    3.9300   -6.0330    0.0000 O   0  0  0  0  0  0  0  0  0  0  0  0
    3.2150   -4.7950    0.0000 C   0  0  0  0  0  0  0  0  0  0  0  0
    1.7860   -3.9700    0.0000 C   0  0  0  0  0  0  0  0  0  0  0  0
    1.0720   -3.5580    0.0000 C   0  0  0  0  0  0  0  0  0  0  0  0
    1.0720   -2.7330    0.0000 C   0  0  0  0  0  0  0  0  0  0  0  0
  1  2  1  0  0  0  0
  2  3  1  0  0  0  0
  3  4  1  0  0  0  0
  4  5  1  0  0  0  0
  4 16  1  0  0  0  0
  5  6  1  0  0  0  0
  6  7  1  0  0  0  0
  6 14  1  6  0  0  0
  7  8  1  0  0  0  0
  7 13  2  0  0  0  0
  8  9  2  0  0  0  0
  9 10  1  0  0  0  0
 10 11  2  0  0  0  0
 11 12  1  0  0  0  0
 11 13  1  0  0  0  0
 14 15  1  0  0  0  0
 15 16  1  0  0  0  0
M  END
> <MOL_ID>
49

>  <Name_of_compounds>
(S)-(-)-3-(3-Hydroxyphenyl)-N-propylpiperidine

>  <Activity_Profiles>
0 1 1 1 1

> <INITIAL_ID>
684

> <SUM_activity>
4

$$$$
1327
  MOE2007           2D

 21 23  0  0  1  0  0  0  0  0999 V2000
    4.8550    3.4770    0.0000 C   0  0  0  0  0  0  0  0  0  0  0  0
    4.0300    3.4770    0.0000 N   0  0  0  0  0  0  0  0  0  0  0  0
    3.6720    2.7340    0.0000 C   0  0  0  0  0  0  0  0  0  0  0  0
    2.8680    2.5500    0.0000 C   0  0  0  0  0  0  0  0  0  0  0  0
    2.2230    3.0640    0.0000 C   0  0  0  0  0  0  0  0  0  0  0  0
    1.5090    2.6520    0.0000 C   0  0  0  0  0  0  0  0  0  0  0  0
    0.7940    3.0640    0.0000 C   0  0  0  0  0  0  0  0  0  0  0  0
    0.7940    3.8900    0.0000 C   0  0  0  0  0  0  0  0  0  0  0  0
    1.5090    4.3020    0.0000 C   0  0  0  0  0  0  0  0  0  0  0  0
    2.2230    3.8900    0.0000 C   0  0  0  0  0  0  0  0  0  0  0  0
    2.8680    4.4040    0.0000 C   0  0  3  0  0  0  0  0  0  0  0  0
    3.6720    4.2200    0.0000 C   0  0  0  0  0  0  0  0  0  0  0  0
    2.6840    5.2080    0.0000 C   0  0  0  0  0  0  0  0  0  0  0  0
    1.8960    5.4510    0.0000 C   0  0  0  0  0  0  0  0  0  0  0  0
    1.7130    6.2560    0.0000 C   0  0  0  0  0  0  0  0  0  0  0  0
    2.3170    6.8170    0.0000 C   0  0  0  0  0  0  0  0  0  0  0  0
    3.1060    6.5740    0.0000 C   0  0  0  0  0  0  0  0  0  0  0  0
    3.2890    5.7690    0.0000 C   0  0  0  0  0  0  0  0  0  0  0  0
    0.0800    4.3020    0.0000 O   0  0  0  0  0  0  0  0  0  0  0  0
    0.0800    2.6520    0.0000 O   0  0  0  0  0  0  0  0  0  0  0  0
    1.5090    1.8270    0.0000 Cl  0  0  0  0  0  0  0  0  0  0  0  0
  1  2  1  0  0  0  0
  2  3  1  0  0  0  0
  2 12  1  0  0  0  0
  3  4  1  0  0  0  0
  4  5  1  0  0  0  0
  5  6  1  0  0  0  0
  5 10  2  0  0  0  0
  6  7  2  0  0  0  0
  6 21  1  0  0  0  0
  7  8  1  0  0  0  0
  7 20  1  0  0  0  0
  8  9  2  0  0  0  0
  8 19  1  0  0  0  0
  9 10  1  0  0  0  0
 10 11  1  0  0  0  0
 11 12  1  0  0  0  0
 11 13  1  0  0  0  0
 13 14  1  0  0  0  0
 13 18  2  0  0  0  0
 14 15  2  0  0  0  0
 15 16  1  0  0  0  0
 16 17  2  0  0  0  0
 17 18  1  0  0  0  0
M  END
> <MOL_ID>
72

>  <Name_of_compounds>
SKF 82957

>  <Activity_Profiles>
1 1 0 1 1

> <INITIAL_ID>
1327

> <SUM_activity>
4

$$$$
3248
  MOE2007           2D

 26 29  0  0  1  0  0  0  0  0999 V2000
   -0.7140    2.0620    0.0000 C   0  0  0  0  0  0  0  0  0  0  0  0
   -0.7140    1.2380    0.0000 N   0  0  0  0  0  0  0  0  0  0  0  0
   -1.4290    0.8250    0.0000 C   0  0  0  0  0  0  0  0  0  0  0  0
   -1.4290    0.0000    0.0000 C   0  0  0  0  0  0  0  0  0  0  0  0
   -0.7140   -0.4120    0.0000 C   0  0  0  0  0  0  0  0  0  0  0  0
   -0.7140   -1.2380    0.0000 C   0  0  0  0  0  0  0  0  0  0  0  0
    0.0000   -1.6500    0.0000 C   0  0  0  0  0  0  0  0  0  0  0  0
    0.7140   -1.2380    0.0000 C   0  0  0  0  0  0  0  0  0  0  0  0
    0.7140   -0.4120    0.0000 C   0  0  0  0  0  0  0  0  0  0  0  0
    0.0000    0.0000    0.0000 C   0  0  0  0  0  0  0  0  0  0  0  0
    0.0000    0.8250    0.0000 C   0  0  3  0  0  0  0  0  0  0  0  0
    0.7140    1.2380    0.0000 C   0  0  0  0  0  0  0  0  0  0  0  0
    1.4290    0.8250    0.0000 C   0  0  0  0  0  0  0  0  0  0  0  0
    2.1430    1.2380    0.0000 C   0  0  0  0  0  0  0  0  0  0  0  0
    2.8580    0.8250    0.0000 C   0  0  0  0  0  0  0  0  0  0  0  0
    2.8580    0.0000    0.0000 C   0  0  0  0  0  0  0  0  0  0  0  0
    2.1430   -0.4120    0.0000 C   0  0  0  0  0  0  0  0  0  0  0  0
    1.4290    0.0000    0.0000 C   0  0  0  0  0  0  0  0  0  0  0  0
    3.5720   -0.4120    0.0000 O   0  0  0  0  0  0  0  0  0  0  0  0
    3.5720   -1.2380    0.0000 C   0  0  0  0  0  0  0  0  0  0  0  0
    3.5720    1.2380    0.0000 O   0  0  0  0  0  0  0  0  0  0  0  0
    4.2870    0.8250    0.0000 C   0  0  0  0  0  0  0  0  0  0  0  0
    1.4290   -1.6500    0.0000 O   0  0  0  0  0  0  0  0  0  0  0  0
    2.1430   -1.2380    0.0000 C   0  0  0  0  0  0  0  0  0  0  0  0
    0.0000   -2.4750    0.0000 O   0  0  0  0  0  0  0  0  0  0  0  0
    0.7140   -2.8880    0.0000 C   0  0  0  0  0  0  0  0  0  0  0  0
  1  2  1  0  0  0  0
  2  3  1  0  0  0  0
  2 11  1  0  0  0  0
  3  4  1  0  0  0  0
  4  5  1  0  0  0  0
  5  6  1  0  0  0  0
  5 10  2  0  0  0  0
  6  7  2  0  0  0  0
  7  8  1  0  0  0  0
  7 25  1  0  0  0  0
  8  9  2  0  0  0  0
  8 23  1  0  0  0  0
  9 10  1  0  0  0  0
  9 18  1  0  0  0  0
 10 11  1  0  0  0  0
 11 12  1  0  0  0  0
 12 13  1  0  0  0  0
 13 14  1  0  0  0  0
 13 18  2  0  0  0  0
 14 15  2  0  0  0  0
 15 16  1  0  0  0  0
 15 21  1  0  0  0  0
 16 17  2  0  0  0  0
 16 19  1  0  0  0  0
 17 18  1  0  0  0  0
 19 20  1  0  0  0  0
 21 22  1  0  0  0  0
 23 24  1  0  0  0  0
 25 26  1  0  0  0  0
M  END
> <MOL_ID>
132

>  <Name_of_compounds>
Glaucine

>  <Activity_Profiles>
1 1 1 1 0

> <INITIAL_ID>
3248

> <SUM_activity>
4

$$$$
1320
  MOE2007           2D

 31 33  0  0  0  0  0  0  0  0999 V2000
   -2.8520   -5.2170    0.0000 C   0  0  0  0  0  0  0  0  0  0  0  0
   -2.6810   -6.0240    0.0000 C   0  0  0  0  0  0  0  0  0  0  0  0
   -3.2940   -6.5760    0.0000 C   0  0  0  0  0  0  0  0  0  0  0  0
   -3.1220   -7.3830    0.0000 C   0  0  0  0  0  0  0  0  0  0  0  0
   -3.7350   -7.9350    0.0000 C   0  0  0  0  0  0  0  0  0  0  0  0
   -3.6490   -8.7550    0.0000 C   0  0  0  0  0  0  0  0  0  0  0  0
   -4.4030   -9.0910    0.0000 C   0  0  0  0  0  0  0  0  0  0  0  0
   -4.6580   -9.8760    0.0000 C   0  0  0  0  0  0  0  0  0  0  0  0
   -5.4650  -10.0470    0.0000 C   0  0  0  0  0  0  0  0  0  0  0  0
   -6.0170   -9.4340    0.0000 C   0  0  0  0  0  0  0  0  0  0  0  0
   -5.7620   -8.6490    0.0000 C   0  0  0  0  0  0  0  0  0  0  0  0
   -4.9550   -8.4780    0.0000 C   0  0  0  0  0  0  0  0  0  0  0  0
   -4.5420   -7.7630    0.0000 O   0  0  0  0  0  0  0  0  0  0  0  0
   -2.9340   -9.1680    0.0000 C   0  0  0  0  0  0  0  0  0  0  0  0
   -2.9340   -9.9930    0.0000 O   0  0  0  0  0  0  0  0  0  0  0  0
   -2.2200   -8.7550    0.0000 C   0  0  0  0  0  0  0  0  0  0  0  0
   -2.2200   -7.9300    0.0000 C   0  0  0  0  0  0  0  0  0  0  0  0
   -1.5060   -7.5180    0.0000 C   0  0  0  0  0  0  0  0  0  0  0  0
   -0.7910   -7.9300    0.0000 C   0  0  0  0  0  0  0  0  0  0  0  0
   -0.7910   -8.7550    0.0000 C   0  0  0  0  0  0  0  0  0  0  0  0
   -1.5060   -9.1680    0.0000 C   0  0  0  0  0  0  0  0  0  0  0  0
   -0.0770   -9.1680    0.0000 I   0  0  0  0  0  0  0  0  0  0  0  0
   -0.0770   -7.5180    0.0000 O   0  0  0  0  0  0  0  0  0  0  0  0
    0.6380   -7.9300    0.0000 C   0  0  0  0  0  0  0  0  0  0  0  0
    1.3520   -7.5180    0.0000 C   0  0  0  0  0  0  0  0  0  0  0  0
    2.0670   -7.9300    0.0000 N   0  0  0  0  0  0  0  0  0  0  0  0
    2.0670   -8.7550    0.0000 C   0  0  0  0  0  0  0  0  0  0  0  0
    2.7810   -9.1680    0.0000 C   0  0  0  0  0  0  0  0  0  0  0  0
    2.7810   -7.5180    0.0000 C   0  0  0  0  0  0  0  0  0  0  0  0
    3.4960   -7.9300    0.0000 C   0  0  0  0  0  0  0  0  0  0  0  0
   -1.5060   -6.6930    0.0000 I   0  0  0  0  0  0  0  0  0  0  0  0
  1  2  1  0  0  0  0
  2  3  1  0  0  0  0
  3  4  1  0  0  0  0
  4  5  1  0  0  0  0
  5  6  2  0  0  0  0
  5 13  1  0  0  0  0
  6  7  1  0  0  0  0
  6 14  1  0  0  0  0
  7  8  1  0  0  0  0
  7 12  2  0  0  0  0
  8  9  2  0  0  0  0
  9 10  1  0  0  0  0
 10 11  2  0  0  0  0
 11 12  1  0  0  0  0
 12 13  1  0  0  0  0
 14 15  2  0  0  0  0
 14 16  1  0  0  0  0
 16 17  1  0  0  0  0
 16 21  2  0  0  0  0
 17 18  2  0  0  0  0
 18 19  1  0  0  0  0
 18 31  1  0  0  0  0
 19 20  2  0  0  0  0
 19 23  1  0  0  0  0
 20 21  1  0  0  0  0
 20 22  1  0  0  0  0
 23 24  1  0  0  0  0
 24 25  1  0  0  0  0
 25 26  1  0  0  0  0
 26 27  1  0  0  0  0
 26 29  1  0  0  0  0
 27 28  1  0  0  0  0
 29 30  1  0  0  0  0
M  END
> <MOL_ID>
68

>  <Name_of_compounds>
Amiodarone

>  <Activity_Profiles>
1 1 1 0 1

> <INITIAL_ID>
1320

> <SUM_activity>
4

$$$$
3244
  MOE2007           2D

 30 33  0  0  0  0  0  0  0  0999 V2000
    2.7860   -0.7120    0.0000 C   0  0  0  0  0  0  0  0  0  0  0  0
    2.7860   -1.5370    0.0000 N   0  0  0  0  0  0  0  0  0  0  0  0
    2.0720   -1.9490    0.0000 C   0  0  0  0  0  0  0  0  0  0  0  0
    1.3580   -1.5370    0.0000 C   0  0  0  0  0  0  0  0  0  0  0  0
    0.6430   -1.9490    0.0000 C   0  0  0  0  0  0  0  0  0  0  0  0
   -0.0720   -1.5370    0.0000 N   0  0  0  0  0  0  0  0  0  0  0  0
   -0.7530   -2.0020    0.0000 C   0  0  0  0  0  0  0  0  0  0  0  0
   -0.5700   -2.8060    0.0000 C   0  0  0  0  0  0  0  0  0  0  0  0
   -1.1740   -3.3670    0.0000 C   0  0  0  0  0  0  0  0  0  0  0  0
   -1.9630   -3.1240    0.0000 C   0  0  0  0  0  0  0  0  0  0  0  0
   -2.1460   -2.3190    0.0000 C   0  0  0  0  0  0  0  0  0  0  0  0
   -1.5420   -1.7580    0.0000 C   0  0  0  0  0  0  0  0  0  0  0  0
   -1.8430   -0.9900    0.0000 C   0  0  0  0  0  0  0  0  0  0  0  0
   -1.4300   -0.2760    0.0000 C   0  0  0  0  0  0  0  0  0  0  0  0
   -0.6150   -0.1530    0.0000 C   0  0  0  0  0  0  0  0  0  0  0  0
   -0.4310    0.6510    0.0000 C   0  0  0  0  0  0  0  0  0  0  0  0
    0.3570    0.8950    0.0000 C   0  0  0  0  0  0  0  0  0  0  0  0
    0.9620    0.3340    0.0000 C   0  0  0  0  0  0  0  0  0  0  0  0
    0.7780   -0.4710    0.0000 C   0  0  0  0  0  0  0  0  0  0  0  0
   -0.0100   -0.7140    0.0000 C   0  0  0  0  0  0  0  0  0  0  0  0
    3.5010   -1.9490    0.0000 C   0  0  0  0  0  0  0  0  0  0  0  0
    4.2150   -1.5370    0.0000 C   0  0  0  0  0  0  0  0  0  0  0  0
    4.2150   -0.7120    0.0000 O   0  0  0  0  0  0  0  0  0  0  0  0
    4.9300   -1.9490    0.0000 C   0  0  0  0  0  0  0  0  0  0  0  0
    5.6440   -1.5370    0.0000 C   0  0  0  0  0  0  0  0  0  0  0  0
    6.3590   -1.9490    0.0000 C   0  0  0  0  0  0  0  0  0  0  0  0
    6.3590   -2.7740    0.0000 C   0  0  0  0  0  0  0  0  0  0  0  0
    5.6440   -3.1870    0.0000 C   0  0  0  0  0  0  0  0  0  0  0  0
    4.9300   -2.7740    0.0000 C   0  0  0  0  0  0  0  0  0  0  0  0
    7.0730   -3.1870    0.0000 Cl  0  0  0  0  0  0  0  0  0  0  0  0
  1  2  1  0  0  0  0
  2  3  1  0  0  0  0
  2 21  1  0  0  0  0
  3  4  1  0  0  0  0
  4  5  1  0  0  0  0
  5  6  1  0  0  0  0
  6  7  1  0  0  0  0
  6 20  1  0  0  0  0
  7  8  1  0  0  0  0
  7 12  2  0  0  0  0
  8  9  2  0  0  0  0
  9 10  1  0  0  0  0
 10 11  2  0  0  0  0
 11 12  1  0  0  0  0
 12 13  1  0  0  0  0
 13 14  1  0  0  0  0
 14 15  1  0  0  0  0
 15 16  1  0  0  0  0
 15 20  2  0  0  0  0
 16 17  2  0  0  0  0
 17 18  1  0  0  0  0
 18 19  2  0  0  0  0
 19 20  1  0  0  0  0
 21 22  1  0  0  0  0
 22 23  2  0  0  0  0
 22 24  1  0  0  0  0
 24 25  1  0  0  0  0
 24 29  2  0  0  0  0
 25 26  2  0  0  0  0
 26 27  1  0  0  0  0
 27 28  2  0  0  0  0
 27 30  1  0  0  0  0
 28 29  1  0  0  0  0
M  END
> <MOL_ID>
131

>  <Name_of_compounds>
Lofepramine

>  <Activity_Profiles>
1 1 1 1 1

> <INITIAL_ID>
3244

> <SUM_activity>
5

$$$$
2941
  MOE2007           2D

 29 32  0  0  0  0  0  0  0  0999 V2000
   -3.2520    1.7640    0.0000 C   0  0  0  0  0  0  0  0  0  0  0  0
   -2.5380    2.1760    0.0000 C   0  0  0  0  0  0  0  0  0  0  0  0
   -2.5380    3.0010    0.0000 C   0  0  0  0  0  0  0  0  0  0  0  0
   -1.8230    3.4140    0.0000 C   0  0  0  0  0  0  0  0  0  0  0  0
   -1.8230    4.2390    0.0000 O   0  0  0  0  0  0  0  0  0  0  0  0
   -1.1090    3.0010    0.0000 N   0  0  0  0  0  0  0  0  0  0  0  0
   -0.3940    3.4140    0.0000 C   0  0  0  0  0  0  0  0  0  0  0  0
    0.3200    3.0010    0.0000 C   0  0  0  0  0  0  0  0  0  0  0  0
    0.3200    2.1760    0.0000 C   0  0  0  0  0  0  0  0  0  0  0  0
   -0.3940    1.7640    0.0000 C   0  0  0  0  0  0  0  0  0  0  0  0
   -1.1090    2.1760    0.0000 C   0  0  0  0  0  0  0  0  0  0  0  0
   -1.8230    1.7640    0.0000 N   0  0  0  0  0  0  0  0  0  0  0  0
   -3.2520    3.4140    0.0000 C   0  0  0  0  0  0  0  0  0  0  0  0
   -3.9660    3.0010    0.0000 C   0  0  0  0  0  0  0  0  0  0  0  0
   -4.6810    3.4140    0.0000 N   0  0  0  0  0  0  0  0  0  0  0  0
   -5.3960    3.0010    0.0000 C   0  0  0  0  0  0  0  0  0  0  0  0
   -6.1100    3.4140    0.0000 C   0  0  0  0  0  0  0  0  0  0  0  0
   -6.1100    4.2390    0.0000 C   0  0  0  0  0  0  0  0  0  0  0  0
   -5.3960    4.6510    0.0000 C   0  0  0  0  0  0  0  0  0  0  0  0
   -4.6810    4.2390    0.0000 C   0  0  0  0  0  0  0  0  0  0  0  0
   -6.8240    4.6510    0.0000 C   0  0  0  0  0  0  0  0  0  0  0  0
   -6.8240    5.4760    0.0000 O   0  0  0  0  0  0  0  0  0  0  0  0
   -7.5390    4.2390    0.0000 C   0  0  0  0  0  0  0  0  0  0  0  0
   -7.5390    3.4140    0.0000 C   0  0  0  0  0  0  0  0  0  0  0  0
   -8.2530    3.0010    0.0000 C   0  0  0  0  0  0  0  0  0  0  0  0
   -8.9680    3.4140    0.0000 C   0  0  0  0  0  0  0  0  0  0  0  0
   -8.9680    4.2390    0.0000 C   0  0  0  0  0  0  0  0  0  0  0  0
   -8.2530    4.6510    0.0000 C   0  0  0  0  0  0  0  0  0  0  0  0
   -9.6820    3.0010    0.0000 F   0  0  0  0  0  0  0  0  0  0  0  0
  1  2  1  0  0  0  0
  2  3  2  0  0  0  0
  2 12  1  0  0  0  0
  3  4  1  0  0  0  0
  3 13  1  0  0  0  0
  4  5  2  0  0  0  0
  4  6  1  0  0  0  0
  6  7  1  0  0  0  0
  6 11  1  0  0  0  0
  7  8  2  0  0  0  0
  8  9  1  0  0  0  0
  9 10  2  0  0  0  0
 10 11  1  0  0  0  0
 11 12  2  0  0  0  0
 13 14  1  0  0  0  0
 14 15  1  0  0  0  0
 15 16  1  0  0  0  0
 15 20  1  0  0  0  0
 16 17  1  0  0  0  0
 17 18  1  0  0  0  0
 18 19  1  0  0  0  0
 18 21  1  0  0  0  0
 19 20  1  0  0  0  0
 21 22  2  0  0  0  0
 21 23  1  0  0  0  0
 23 24  1  0  0  0  0
 23 28  2  0  0  0  0
 24 25  2  0  0  0  0
 25 26  1  0  0  0  0
 26 27  2  0  0  0  0
 26 29  1  0  0  0  0
 27 28  1  0  0  0  0
M  END
> <MOL_ID>
129

>  <Name_of_compounds>
Pirenperone

>  <Activity_Profiles>
1 1 1 1 1

> <INITIAL_ID>
2941

> <SUM_activity>
5

$$$$
115
  MOE2007           2D

 22 25  0  0  0  0  0  0  0  0999 V2000
    1.6140   -1.3230    0.0000 C   0  0  0  0  0  0  0  0  0  0  0  0
    2.4160   -1.1300    0.0000 C   0  0  0  0  0  0  0  0  0  0  0  0
    2.7320   -0.3680    0.0000 C   0  0  0  0  0  0  0  0  0  0  0  0
    3.5540   -0.4330    0.0000 C   0  0  0  0  0  0  0  0  0  0  0  0
    4.0610    0.2180    0.0000 C   0  0  0  0  0  0  0  0  0  0  0  0
    4.8860    0.2270    0.0000 N   0  0  0  0  0  0  0  0  0  0  0  0
    5.4080   -0.4120    0.0000 C   0  0  0  0  0  0  0  0  0  0  0  0
    6.1940   -0.1600    0.0000 C   0  0  0  0  0  0  0  0  0  0  0  0
    6.8040   -0.7140    0.0000 C   0  0  0  0  0  0  0  0  0  0  0  0
    6.6300   -1.5210    0.0000 C   0  0  0  0  0  0  0  0  0  0  0  0
    5.8440   -1.7720    0.0000 C   0  0  0  0  0  0  0  0  0  0  0  0
    5.2330   -1.2180    0.0000 C   0  0  0  0  0  0  0  0  0  0  0  0
    4.4940   -1.5840    0.0000 N   0  0  0  0  0  0  0  0  0  0  0  0
    3.7470   -1.2350    0.0000 C   0  0  0  0  0  0  0  0  0  0  0  0
    3.0430   -1.6660    0.0000 S   0  0  0  0  0  0  0  0  0  0  0  0
    3.6950    0.9570    0.0000 N   0  0  0  0  0  0  0  0  0  0  0  0
    2.8720    1.0100    0.0000 C   0  0  0  0  0  0  0  0  0  0  0  0
    2.5060    1.7490    0.0000 C   0  0  0  0  0  0  0  0  0  0  0  0
    2.9630    2.4360    0.0000 N   0  0  0  0  0  0  0  0  0  0  0  0
    3.7860    2.3830    0.0000 C   0  0  0  0  0  0  0  0  0  0  0  0
    4.1520    1.6440    0.0000 C   0  0  0  0  0  0  0  0  0  0  0  0
    2.5960    3.1750    0.0000 C   0  0  0  0  0  0  0  0  0  0  0  0
  1  2  1  0  0  0  0
  2  3  2  0  0  0  0
  2 15  1  0  0  0  0
  3  4  1  0  0  0  0
  4  5  2  0  0  0  0
  4 14  1  0  0  0  0
  5  6  1  0  0  0  0
  5 16  1  0  0  0  0
  6  7  1  0  0  0  0
  7  8  1  0  0  0  0
  7 12  2  0  0  0  0
  8  9  2  0  0  0  0
  9 10  1  0  0  0  0
 10 11  2  0  0  0  0
 11 12  1  0  0  0  0
 12 13  1  0  0  0  0
 13 14  2  0  0  0  0
 14 15  1  0  0  0  0
 16 17  1  0  0  0  0
 16 21  1  0  0  0  0
 17 18  1  0  0  0  0
 18 19  1  0  0  0  0
 19 20  1  0  0  0  0
 19 22  1  0  0  0  0
 20 21  1  0  0  0  0
M  END
> <MOL_ID>
15

>  <Name_of_compounds>
Olanzapine

>  <Activity_Profiles>
1 1 1 1 1

> <INITIAL_ID>
115

> <SUM_activity>
5

$$$$
114
  MOE2007           2D

 19 20  0  0  0  0  0  0  0  0999 V2000
   -1.6550   -1.8240    0.0000 C   0  0  0  0  0  0  0  0  0  0  0  0
   -0.9400   -2.2360    0.0000 C   0  0  0  0  0  0  0  0  0  0  0  0
   -0.2260   -1.8240    0.0000 C   0  0  0  0  0  0  0  0  0  0  0  0
    0.4890   -2.2360    0.0000 C   0  0  0  0  0  0  0  0  0  0  0  0
    0.4890   -3.0610    0.0000 N   0  0  0  0  0  0  0  0  0  0  0  0
   -0.2260   -3.4740    0.0000 C   0  0  0  0  0  0  0  0  0  0  0  0
   -0.9400   -3.0610    0.0000 C   0  0  0  0  0  0  0  0  0  0  0  0
    1.2030   -3.4740    0.0000 C   0  0  0  0  0  0  0  0  0  0  0  0
    1.9180   -3.0610    0.0000 C   0  0  0  0  0  0  0  0  0  0  0  0
    2.6320   -3.4740    0.0000 C   0  0  0  0  0  0  0  0  0  0  0  0
    3.3470   -3.0610    0.0000 C   0  0  0  0  0  0  0  0  0  0  0  0
    3.3470   -2.2360    0.0000 O   0  0  0  0  0  0  0  0  0  0  0  0
    4.0610   -3.4740    0.0000 C   0  0  0  0  0  0  0  0  0  0  0  0
    4.7760   -3.0610    0.0000 C   0  0  0  0  0  0  0  0  0  0  0  0
    5.4900   -3.4740    0.0000 C   0  0  0  0  0  0  0  0  0  0  0  0
    5.4900   -4.2990    0.0000 C   0  0  0  0  0  0  0  0  0  0  0  0
    4.7760   -4.7110    0.0000 C   0  0  0  0  0  0  0  0  0  0  0  0
    4.0610   -4.2990    0.0000 C   0  0  0  0  0  0  0  0  0  0  0  0
    6.2050   -4.7110    0.0000 F   0  0  0  0  0  0  0  0  0  0  0  0
  1  2  1  0  0  0  0
  2  3  1  0  0  0  0
  2  7  1  0  0  0  0
  3  4  1  0  0  0  0
  4  5  1  0  0  0  0
  5  6  1  0  0  0  0
  5  8  1  0  0  0  0
  6  7  1  0  0  0  0
  8  9  1  0  0  0  0
  9 10  1  0  0  0  0
 10 11  1  0  0  0  0
 11 12  2  0  0  0  0
 11 13  1  0  0  0  0
 13 14  1  0  0  0  0
 13 18  2  0  0  0  0
 14 15  2  0  0  0  0
 15 16  1  0  0  0  0
 16 17  2  0  0  0  0
 16 19  1  0  0  0  0
 17 18  1  0  0  0  0
M  END
> <MOL_ID>
14

>  <Name_of_compounds>
Melperone

>  <Activity_Profiles>
1 1 1 1 1

> <INITIAL_ID>
114

> <SUM_activity>
5

$$$$
116
  MOE2007           2D

 19 22  0  0  1  0  0  0  0  0999 V2000
    6.6930    5.9380    0.0000 C   0  0  0  0  0  0  0  0  0  0  0  0
    6.6930    5.1130    0.0000 N   0  0  0  0  0  0  0  0  0  0  0  0
    7.3600    4.6280    0.0000 C   0  0  0  0  0  0  0  0  0  0  0  0
    7.1060    3.8440    0.0000 C   0  0  3  0  0  0  0  0  0  0  0  0
    7.6200    3.1990    0.0000 C   0  0  0  0  0  0  0  0  0  0  0  0
    7.4360    2.3940    0.0000 C   0  0  0  0  0  0  0  0  0  0  0  0
    8.0410    1.8330    0.0000 C   0  0  0  0  0  0  0  0  0  0  0  0
    8.8300    2.0760    0.0000 C   0  0  0  0  0  0  0  0  0  0  0  0
    9.0130    2.8810    0.0000 C   0  0  0  0  0  0  0  0  0  0  0  0
    8.4080    3.4420    0.0000 C   0  0  0  0  0  0  0  0  0  0  0  0
    6.6930    2.0360    0.0000 O   0  0  0  0  0  0  0  0  0  0  0  0
    5.9500    2.3940    0.0000 C   0  0  0  0  0  0  0  0  0  0  0  0
    5.3450    1.8330    0.0000 C   0  0  0  0  0  0  0  0  0  0  0  0
    4.5570    2.0760    0.0000 C   0  0  0  0  0  0  0  0  0  0  0  0
    4.3730    2.8810    0.0000 C   0  0  0  0  0  0  0  0  0  0  0  0
    4.9780    3.4420    0.0000 C   0  0  0  0  0  0  0  0  0  0  0  0
    5.7660    3.1990    0.0000 C   0  0  0  0  0  0  0  0  0  0  0  0
    6.2810    3.8440    0.0000 C   0  0  3  0  0  0  0  0  0  0  0  0
    6.0260    4.6280    0.0000 C   0  0  0  0  0  0  0  0  0  0  0  0
  1  2  1  0  0  0  0
  2  3  1  0  0  0  0
  2 19  1  0  0  0  0
  3  4  1  0  0  0  0
  4  5  1  0  0  0  0
  4 18  1  0  0  0  0
  5  6  1  0  0  0  0
  5 10  2  0  0  0  0
  6  7  2  0  0  0  0
  6 11  1  0  0  0  0
  7  8  1  0  0  0  0
  8  9  2  0  0  0  0
  9 10  1  0  0  0  0
 11 12  1  0  0  0  0
 12 13  1  0  0  0  0
 12 17  2  0  0  0  0
 13 14  2  0  0  0  0
 14 15  1  0  0  0  0
 15 16  2  0  0  0  0
 16 17  1  0  0  0  0
 17 18  1  0  0  0  0
 18 19  1  0  0  0  0
M  END
> <MOL_ID>
16

>  <Name_of_compounds>
ORG-5222

>  <Activity_Profiles>
1 1 1 1 1

> <INITIAL_ID>
116

> <SUM_activity>
5

$$$$
111
  MOE2007           2D

 23 26  0  0  0  0  0  0  0  0999 V2000
    8.9270    7.6110    0.0000 C   0  0  0  0  0  0  0  0  0  0  0  0
    8.5690    6.8680    0.0000 N   0  0  0  0  0  0  0  0  0  0  0  0
    9.0340    6.1860    0.0000 C   0  0  0  0  0  0  0  0  0  0  0  0
    8.6760    5.4430    0.0000 C   0  0  0  0  0  0  0  0  0  0  0  0
    7.8530    5.3810    0.0000 N   0  0  0  0  0  0  0  0  0  0  0  0
    7.3880    6.0630    0.0000 C   0  0  0  0  0  0  0  0  0  0  0  0
    7.7460    6.8060    0.0000 C   0  0  0  0  0  0  0  0  0  0  0  0
    7.4950    4.6380    0.0000 C   0  0  0  0  0  0  0  0  0  0  0  0
    8.0090    3.9930    0.0000 C   0  0  0  0  0  0  0  0  0  0  0  0
    8.7980    4.2360    0.0000 C   0  0  0  0  0  0  0  0  0  0  0  0
    9.4020    3.6750    0.0000 C   0  0  0  0  0  0  0  0  0  0  0  0
    9.2190    2.8710    0.0000 C   0  0  0  0  0  0  0  0  0  0  0  0
    8.4300    2.6270    0.0000 C   0  0  0  0  0  0  0  0  0  0  0  0
    7.8260    3.1880    0.0000 C   0  0  0  0  0  0  0  0  0  0  0  0
    7.0820    2.8310    0.0000 N   0  0  0  0  0  0  0  0  0  0  0  0
    6.3390    3.1880    0.0000 C   0  0  0  0  0  0  0  0  0  0  0  0
    6.1560    3.9930    0.0000 C   0  0  0  0  0  0  0  0  0  0  0  0
    6.6700    4.6380    0.0000 N   0  0  0  0  0  0  0  0  0  0  0  0
    5.3670    4.2360    0.0000 C   0  0  0  0  0  0  0  0  0  0  0  0
    4.7620    3.6750    0.0000 C   0  0  0  0  0  0  0  0  0  0  0  0
    4.9460    2.8710    0.0000 C   0  0  0  0  0  0  0  0  0  0  0  0
    5.7340    2.6270    0.0000 C   0  0  0  0  0  0  0  0  0  0  0  0
    3.9740    3.9180    0.0000 Cl  0  0  0  0  0  0  0  0  0  0  0  0
  1  2  1  0  0  0  0
  2  3  1  0  0  0  0
  2  7  1  0  0  0  0
  3  4  1  0  0  0  0
  4  5  1  0  0  0  0
  5  6  1  0  0  0  0
  5  8  1  0  0  0  0
  6  7  1  0  0  0  0
  8  9  2  0  0  0  0
  8 18  1  0  0  0  0
  9 10  1  0  0  0  0
  9 14  1  0  0  0  0
 10 11  2  0  0  0  0
 11 12  1  0  0  0  0
 12 13  2  0  0  0  0
 13 14  1  0  0  0  0
 14 15  2  0  0  0  0
 15 16  1  0  0  0  0
 16 17  1  0  0  0  0
 16 22  2  0  0  0  0
 17 18  1  0  0  0  0
 17 19  2  0  0  0  0
 19 20  1  0  0  0  0
 20 21  2  0  0  0  0
 20 23  1  0  0  0  0
 21 22  1  0  0  0  0
M  END
> <MOL_ID>
11

>  <Name_of_compounds>
Clozapine

>  <Activity_Profiles>
1 1 1 1 1

> <INITIAL_ID>
111

> <SUM_activity>
5

$$$$
113
  MOE2007           2D

 31 34  0  0  0  0  0  0  0  0999 V2000
   -2.5830   10.4180    0.0000 C   0  0  0  0  0  0  0  0  0  0  0  0
   -1.7760   10.2470    0.0000 C   0  0  0  0  0  0  0  0  0  0  0  0
   -1.2240   10.8600    0.0000 O   0  0  0  0  0  0  0  0  0  0  0  0
   -1.5210    9.4620    0.0000 C   0  0  0  0  0  0  0  0  0  0  0  0
   -0.7140    9.2910    0.0000 C   0  0  0  0  0  0  0  0  0  0  0  0
   -0.4590    8.5060    0.0000 C   0  0  0  0  0  0  0  0  0  0  0  0
   -1.0110    7.8930    0.0000 C   0  0  0  0  0  0  0  0  0  0  0  0
   -1.8180    8.0650    0.0000 C   0  0  0  0  0  0  0  0  0  0  0  0
   -2.0730    8.8490    0.0000 C   0  0  0  0  0  0  0  0  0  0  0  0
   -0.7560    7.1080    0.0000 O   0  0  0  0  0  0  0  0  0  0  0  0
    0.0510    6.9370    0.0000 C   0  0  0  0  0  0  0  0  0  0  0  0
    0.3060    6.1520    0.0000 C   0  0  0  0  0  0  0  0  0  0  0  0
    1.1130    5.9810    0.0000 C   0  0  0  0  0  0  0  0  0  0  0  0
    1.3680    5.1960    0.0000 N   0  0  0  0  0  0  0  0  0  0  0  0
    2.1740    5.0240    0.0000 C   0  0  0  0  0  0  0  0  0  0  0  0
    2.4300    4.2400    0.0000 C   0  0  0  0  0  0  0  0  0  0  0  0
    1.8770    3.6270    0.0000 C   0  0  0  0  0  0  0  0  0  0  0  0
    1.0700    3.7980    0.0000 C   0  0  0  0  0  0  0  0  0  0  0  0
    0.8160    4.5830    0.0000 C   0  0  0  0  0  0  0  0  0  0  0  0
    2.1320    2.8420    0.0000 C   0  0  0  0  0  0  0  0  0  0  0  0
    1.6480    2.1750    0.0000 N   0  0  0  0  0  0  0  0  0  0  0  0
    2.1320    1.5070    0.0000 O   0  0  0  0  0  0  0  0  0  0  0  0
    2.9170    1.7620    0.0000 C   0  0  0  0  0  0  0  0  0  0  0  0
    2.9170    2.5870    0.0000 C   0  0  0  0  0  0  0  0  0  0  0  0
    3.6320    3.0000    0.0000 C   0  0  0  0  0  0  0  0  0  0  0  0
    4.3460    2.5870    0.0000 C   0  0  0  0  0  0  0  0  0  0  0  0
    4.3460    1.7620    0.0000 C   0  0  0  0  0  0  0  0  0  0  0  0
    3.6320    1.3500    0.0000 C   0  0  0  0  0  0  0  0  0  0  0  0
    5.0600    1.3500    0.0000 F   0  0  0  0  0  0  0  0  0  0  0  0
    0.3480    8.3350    0.0000 O   0  0  0  0  0  0  0  0  0  0  0  0
    0.6030    7.5500    0.0000 C   0  0  0  0  0  0  0  0  0  0  0  0
  1  2  1  0  0  0  0
  2  3  2  0  0  0  0
  2  4  1  0  0  0  0
  4  5  1  0  0  0  0
  4  9  2  0  0  0  0
  5  6  2  0  0  0  0
  6  7  1  0  0  0  0
  6 30  1  0  0  0  0
  7  8  2  0  0  0  0
  7 10  1  0  0  0  0
  8  9  1  0  0  0  0
 10 11  1  0  0  0  0
 11 12  1  0  0  0  0
 12 13  1  0  0  0  0
 13 14  1  0  0  0  0
 14 15  1  0  0  0  0
 14 19  1  0  0  0  0
 15 16  1  0  0  0  0
 16 17  1  0  0  0  0
 17 18  1  0  0  0  0
 17 20  1  0  0  0  0
 18 19  1  0  0  0  0
 20 21  2  0  0  0  0
 20 24  1  0  0  0  0
 21 22  1  0  0  0  0
 22 23  1  0  0  0  0
 23 24  1  0  0  0  0
 23 28  2  0  0  0  0
 24 25  2  0  0  0  0
 25 26  1  0  0  0  0
 26 27  2  0  0  0  0
 27 28  1  0  0  0  0
 27 29  1  0  0  0  0
 30 31  1  0  0  0  0
M  END
> <MOL_ID>
13

>  <Name_of_compounds>
Iloperidone

>  <Activity_Profiles>
1 1 1 1 1

> <INITIAL_ID>
113

> <SUM_activity>
5

$$$$
120
  MOE2007           2D

 28 32  0  0  0  0  0  0  0  0999 V2000
   -5.6970  -12.9880    0.0000 O   0  0  0  0  0  0  0  0  0  0  0  0
   -5.0840  -12.4360    0.0000 C   0  0  0  0  0  0  0  0  0  0  0  0
   -5.1700  -11.6160    0.0000 C   0  0  0  0  0  0  0  0  0  0  0  0
   -4.2770  -12.6080    0.0000 N   0  0  0  0  0  0  0  0  0  0  0  0
   -3.8640  -11.8930    0.0000 C   0  0  0  0  0  0  0  0  0  0  0  0
   -4.4160  -11.2800    0.0000 C   0  0  0  0  0  0  0  0  0  0  0  0
   -4.1610  -10.4950    0.0000 C   0  0  0  0  0  0  0  0  0  0  0  0
   -3.0570  -11.7220    0.0000 C   0  0  0  0  0  0  0  0  0  0  0  0
   -2.8020  -10.9370    0.0000 C   0  0  0  0  0  0  0  0  0  0  0  0
   -1.9950  -10.7650    0.0000 Cl  0  0  0  0  0  0  0  0  0  0  0  0
   -3.3540  -10.3240    0.0000 C   0  0  0  0  0  0  0  0  0  0  0  0
   -3.0990   -9.5390    0.0000 C   0  0  0  0  0  0  0  0  0  0  0  0
   -3.6510   -8.9260    0.0000 C   0  0  0  0  0  0  0  0  0  0  0  0
   -3.3960   -8.1420    0.0000 N   0  0  0  0  0  0  0  0  0  0  0  0
   -3.9480   -7.5280    0.0000 C   0  0  0  0  0  0  0  0  0  0  0  0
   -3.6930   -6.7440    0.0000 C   0  0  0  0  0  0  0  0  0  0  0  0
   -2.5890   -7.9700    0.0000 C   0  0  0  0  0  0  0  0  0  0  0  0
   -2.3340   -7.1850    0.0000 C   0  0  0  0  0  0  0  0  0  0  0  0
   -2.8860   -6.5720    0.0000 N   0  0  0  0  0  0  0  0  0  0  0  0
   -2.6320   -5.7880    0.0000 C   0  0  0  0  0  0  0  0  0  0  0  0
   -3.1160   -5.1200    0.0000 N   0  0  0  0  0  0  0  0  0  0  0  0
   -2.6320   -4.4530    0.0000 S   0  0  0  0  0  0  0  0  0  0  0  0
   -1.8470   -4.7080    0.0000 C   0  0  0  0  0  0  0  0  0  0  0  0
   -1.1320   -4.2950    0.0000 C   0  0  0  0  0  0  0  0  0  0  0  0
   -0.4180   -4.7080    0.0000 C   0  0  0  0  0  0  0  0  0  0  0  0
   -0.4180   -5.5330    0.0000 C   0  0  0  0  0  0  0  0  0  0  0  0
   -1.1320   -5.9450    0.0000 C   0  0  0  0  0  0  0  0  0  0  0  0
   -1.8470   -5.5330    0.0000 C   0  0  0  0  0  0  0  0  0  0  0  0
  1  2  2  0  0  0  0
  2  3  1  0  0  0  0
  2  4  1  0  0  0  0
  3  6  1  0  0  0  0
  4  5  1  0  0  0  0
  5  6  2  0  0  0  0
  5  8  1  0  0  0  0
  6  7  1  0  0  0  0
  7 11  2  0  0  0  0
  8  9  2  0  0  0  0
  9 10  1  0  0  0  0
  9 11  1  0  0  0  0
 11 12  1  0  0  0  0
 12 13  1  0  0  0  0
 13 14  1  0  0  0  0
 14 15  1  0  0  0  0
 14 17  1  0  0  0  0
 15 16  1  0  0  0  0
 16 19  1  0  0  0  0
 17 18  1  0  0  0  0
 18 19  1  0  0  0  0
 19 20  1  0  0  0  0
 20 21  2  0  0  0  0
 20 28  1  0  0  0  0
 21 22  1  0  0  0  0
 22 23  1  0  0  0  0
 23 24  1  0  0  0  0
 23 28  2  0  0  0  0
 24 25  2  0  0  0  0
 25 26  1  0  0  0  0
 26 27  2  0  0  0  0
 27 28  1  0  0  0  0
M  END
> <MOL_ID>
20

>  <Name_of_compounds>
Ziprasidone

>  <Activity_Profiles>
1 1 1 1 1

> <INITIAL_ID>
120

> <SUM_activity>
5

$$$$
119
  MOE2007           2D

 31 35  0  0  0  0  0  0  0  0999 V2000
   -0.4440    2.0180    0.0000 C   0  0  0  0  0  0  0  0  0  0  0  0
   -0.6990    2.8030    0.0000 C   0  0  0  0  0  0  0  0  0  0  0  0
   -0.1470    3.4160    0.0000 N   0  0  0  0  0  0  0  0  0  0  0  0
    0.6600    3.2450    0.0000 C   0  0  0  0  0  0  0  0  0  0  0  0
    0.9150    2.4600    0.0000 C   0  0  0  0  0  0  0  0  0  0  0  0
    0.3630    1.8470    0.0000 C   0  0  0  0  0  0  0  0  0  0  0  0
    0.6180    1.0620    0.0000 C   0  0  0  0  0  0  0  0  0  0  0  0
    0.1330    0.3950    0.0000 C   0  0  0  0  0  0  0  0  0  0  0  0
    0.6180   -0.2730    0.0000 N   0  0  0  0  0  0  0  0  0  0  0  0
    1.4020   -0.0180    0.0000 C   0  0  0  0  0  0  0  0  0  0  0  0
    1.4020    0.8070    0.0000 C   0  0  0  0  0  0  0  0  0  0  0  0
    2.1170    1.2200    0.0000 C   0  0  0  0  0  0  0  0  0  0  0  0
    2.8320    0.8070    0.0000 C   0  0  0  0  0  0  0  0  0  0  0  0
    2.8320   -0.0180    0.0000 C   0  0  0  0  0  0  0  0  0  0  0  0
    2.1170   -0.4300    0.0000 C   0  0  0  0  0  0  0  0  0  0  0  0
    3.5460    1.2200    0.0000 Cl  0  0  0  0  0  0  0  0  0  0  0  0
    0.3630   -1.0570    0.0000 C   0  0  0  0  0  0  0  0  0  0  0  0
    0.9150   -1.6700    0.0000 C   0  0  0  0  0  0  0  0  0  0  0  0
    0.6600   -2.4550    0.0000 C   0  0  0  0  0  0  0  0  0  0  0  0
   -0.1470   -2.6260    0.0000 C   0  0  0  0  0  0  0  0  0  0  0  0
   -0.6990   -2.0130    0.0000 C   0  0  0  0  0  0  0  0  0  0  0  0
   -0.4440   -1.2290    0.0000 C   0  0  0  0  0  0  0  0  0  0  0  0
   -0.4020   -3.4110    0.0000 F   0  0  0  0  0  0  0  0  0  0  0  0
   -0.4020    4.2010    0.0000 C   0  0  0  0  0  0  0  0  0  0  0  0
   -1.2090    4.3720    0.0000 C   0  0  0  0  0  0  0  0  0  0  0  0
   -1.4640    5.1570    0.0000 N   0  0  0  0  0  0  0  0  0  0  0  0
   -2.2480    5.4120    0.0000 C   0  0  0  0  0  0  0  0  0  0  0  0
   -2.2480    6.2370    0.0000 C   0  0  0  0  0  0  0  0  0  0  0  0
   -1.4640    6.4920    0.0000 N   0  0  0  0  0  0  0  0  0  0  0  0
   -0.9790    5.8240    0.0000 C   0  0  0  0  0  0  0  0  0  0  0  0
   -0.1540    5.8240    0.0000 O   0  0  0  0  0  0  0  0  0  0  0  0
  1  2  1  0  0  0  0
  1  6  1  0  0  0  0
  2  3  1  0  0  0  0
  3  4  1  0  0  0  0
  3 24  1  0  0  0  0
  4  5  1  0  0  0  0
  5  6  1  0  0  0  0
  6  7  1  0  0  0  0
  7  8  2  0  0  0  0
  7 11  1  0  0  0  0
  8  9  1  0  0  0  0
  9 10  1  0  0  0  0
  9 17  1  0  0  0  0
 10 11  1  0  0  0  0
 10 15  2  0  0  0  0
 11 12  2  0  0  0  0
 12 13  1  0  0  0  0
 13 14  2  0  0  0  0
 13 16  1  0  0  0  0
 14 15  1  0  0  0  0
 17 18  1  0  0  0  0
 17 22  2  0  0  0  0
 18 19  2  0  0  0  0
 19 20  1  0  0  0  0
 20 21  2  0  0  0  0
 20 23  1  0  0  0  0
 21 22  1  0  0  0  0
 24 25  1  0  0  0  0
 25 26  1  0  0  0  0
 26 27  1  0  0  0  0
 26 30  1  0  0  0  0
 27 28  1  0  0  0  0
 28 29  1  0  0  0  0
 29 30  1  0  0  0  0
 30 31  2  0  0  0  0
M  END
> <MOL_ID>
19

>  <Name_of_compounds>
Sertindole

>  <Activity_Profiles>
1 1 1 1 1

> <INITIAL_ID>
119

> <SUM_activity>
5

$$$$
121
  MOE2007           2D

 22 24  0  0  0  0  0  0  0  0999 V2000
    1.2620   -5.9050    0.0000 C   0  0  0  0  0  0  0  0  0  0  0  0
    1.9770   -6.3170    0.0000 N   0  0  0  0  0  0  0  0  0  0  0  0
    1.9770   -7.1420    0.0000 C   0  0  0  0  0  0  0  0  0  0  0  0
    2.6910   -5.9050    0.0000 C   0  0  0  0  0  0  0  0  0  0  0  0
    3.4060   -6.3170    0.0000 C   0  0  0  0  0  0  0  0  0  0  0  0
    4.1200   -5.9050    0.0000 O   0  0  0  0  0  0  0  0  0  0  0  0
    4.8350   -6.3170    0.0000 C   0  0  0  0  0  0  0  0  0  0  0  0
    5.5160   -5.8520    0.0000 C   0  0  0  0  0  0  0  0  0  0  0  0
    6.3050   -6.0960    0.0000 C   0  0  0  0  0  0  0  0  0  0  0  0
    6.8190   -5.4510    0.0000 C   0  0  0  0  0  0  0  0  0  0  0  0
    7.6350   -5.5740    0.0000 C   0  0  0  0  0  0  0  0  0  0  0  0
    7.9360   -6.3420    0.0000 C   0  0  0  0  0  0  0  0  0  0  0  0
    7.4220   -6.9870    0.0000 C   0  0  0  0  0  0  0  0  0  0  0  0
    6.6060   -6.8640    0.0000 C   0  0  0  0  0  0  0  0  0  0  0  0
    6.1940   -7.5780    0.0000 S   0  0  0  0  0  0  0  0  0  0  0  0
    5.3780   -7.7010    0.0000 C   0  0  0  0  0  0  0  0  0  0  0  0
    5.1940   -8.5050    0.0000 C   0  0  0  0  0  0  0  0  0  0  0  0
    4.4060   -8.7490    0.0000 C   0  0  0  0  0  0  0  0  0  0  0  0
    3.8010   -8.1870    0.0000 C   0  0  0  0  0  0  0  0  0  0  0  0
    3.0130   -8.4310    0.0000 Cl  0  0  0  0  0  0  0  0  0  0  0  0
    3.9850   -7.3830    0.0000 C   0  0  0  0  0  0  0  0  0  0  0  0
    4.7730   -7.1400    0.0000 C   0  0  0  0  0  0  0  0  0  0  0  0
  1  2  1  0  0  0  0
  2  3  1  0  0  0  0
  2  4  1  0  0  0  0
  4  5  1  0  0  0  0
  5  6  1  0  0  0  0
  6  7  1  0  0  0  0
  7  8  2  0  0  0  0
  7 22  1  0  0  0  0
  8  9  1  0  0  0  0
  9 10  1  0  0  0  0
  9 14  2  0  0  0  0
 10 11  2  0  0  0  0
 11 12  1  0  0  0  0
 12 13  2  0  0  0  0
 13 14  1  0  0  0  0
 14 15  1  0  0  0  0
 15 16  1  0  0  0  0
 16 17  1  0  0  0  0
 16 22  2  0  0  0  0
 17 18  2  0  0  0  0
 18 19  1  0  0  0  0
 19 20  1  0  0  0  0
 19 21  2  0  0  0  0
 21 22  1  0  0  0  0
M  END
> <MOL_ID>
21

>  <Name_of_compounds>
Zotepine

>  <Activity_Profiles>
1 1 1 1 1

> <INITIAL_ID>
121

> <SUM_activity>
5

$$$$
117
  MOE2007           2D

 27 30  0  0  0  0  0  0  0  0999 V2000
    4.9290  -13.5140    0.0000 O   0  0  0  0  0  0  0  0  0  0  0  0
    5.6440  -13.1020    0.0000 C   0  0  0  0  0  0  0  0  0  0  0  0
    6.3580  -13.5140    0.0000 C   0  0  0  0  0  0  0  0  0  0  0  0
    7.0720  -13.1020    0.0000 O   0  0  0  0  0  0  0  0  0  0  0  0
    7.7870  -13.5140    0.0000 C   0  0  0  0  0  0  0  0  0  0  0  0
    8.5010  -13.1020    0.0000 C   0  0  0  0  0  0  0  0  0  0  0  0
    9.2160  -13.5140    0.0000 N   0  0  0  0  0  0  0  0  0  0  0  0
    9.9300  -13.1020    0.0000 C   0  0  0  0  0  0  0  0  0  0  0  0
   10.6450  -13.5140    0.0000 C   0  0  0  0  0  0  0  0  0  0  0  0
    9.2160  -14.3390    0.0000 C   0  0  0  0  0  0  0  0  0  0  0  0
    9.9300  -14.7520    0.0000 C   0  0  0  0  0  0  0  0  0  0  0  0
   10.6450  -14.3390    0.0000 N   0  0  0  0  0  0  0  0  0  0  0  0
   11.3590  -14.7520    0.0000 C   0  0  0  0  0  0  0  0  0  0  0  0
   12.0410  -14.2870    0.0000 N   0  0  0  0  0  0  0  0  0  0  0  0
   12.8290  -14.5300    0.0000 C   0  0  0  0  0  0  0  0  0  0  0  0
   13.3440  -13.8850    0.0000 C   0  0  0  0  0  0  0  0  0  0  0  0
   14.1600  -14.0080    0.0000 C   0  0  0  0  0  0  0  0  0  0  0  0
   14.4610  -14.7760    0.0000 C   0  0  0  0  0  0  0  0  0  0  0  0
   13.9460  -15.4210    0.0000 C   0  0  0  0  0  0  0  0  0  0  0  0
   13.1310  -15.2980    0.0000 C   0  0  0  0  0  0  0  0  0  0  0  0
   12.7180  -16.0130    0.0000 S   0  0  0  0  0  0  0  0  0  0  0  0
   11.9020  -16.1360    0.0000 C   0  0  0  0  0  0  0  0  0  0  0  0
   11.2980  -15.5740    0.0000 C   0  0  0  0  0  0  0  0  0  0  0  0
   10.5090  -15.8180    0.0000 C   0  0  0  0  0  0  0  0  0  0  0  0
   10.3260  -16.6220    0.0000 C   0  0  0  0  0  0  0  0  0  0  0  0
   10.9300  -17.1830    0.0000 C   0  0  0  0  0  0  0  0  0  0  0  0
   11.7190  -16.9400    0.0000 C   0  0  0  0  0  0  0  0  0  0  0  0
  1  2  1  0  0  0  0
  2  3  1  0  0  0  0
  3  4  1  0  0  0  0
  4  5  1  0  0  0  0
  5  6  1  0  0  0  0
  6  7  1  0  0  0  0
  7  8  1  0  0  0  0
  7 10  1  0  0  0  0
  8  9  1  0  0  0  0
  9 12  1  0  0  0  0
 10 11  1  0  0  0  0
 11 12  1  0  0  0  0
 12 13  1  0  0  0  0
 13 14  2  0  0  0  0
 13 23  1  0  0  0  0
 14 15  1  0  0  0  0
 15 16  1  0  0  0  0
 15 20  2  0  0  0  0
 16 17  2  0  0  0  0
 17 18  1  0  0  0  0
 18 19  2  0  0  0  0
 19 20  1  0  0  0  0
 20 21  1  0  0  0  0
 21 22  1  0  0  0  0
 22 23  1  0  0  0  0
 22 27  2  0  0  0  0
 23 24  2  0  0  0  0
 24 25  1  0  0  0  0
 25 26  2  0  0  0  0
 26 27  1  0  0  0  0
M  END
> <MOL_ID>
17

>  <Name_of_compounds>
Quetiapine

>  <Activity_Profiles>
1 1 1 1 1

> <INITIAL_ID>
117

> <SUM_activity>
5

$$$$
118
  MOE2007           2D

 30 34  0  0  0  0  0  0  0  0999 V2000
    0.2200   -1.8870    0.0000 C   0  0  0  0  0  0  0  0  0  0  0  0
   -0.5870   -1.7150    0.0000 C   0  0  0  0  0  0  0  0  0  0  0  0
   -1.1390   -2.3280    0.0000 C   0  0  0  0  0  0  0  0  0  0  0  0
   -1.9460   -2.1570    0.0000 C   0  0  0  0  0  0  0  0  0  0  0  0
   -2.4980   -2.7700    0.0000 O   0  0  0  0  0  0  0  0  0  0  0  0
   -2.2010   -1.3720    0.0000 N   0  0  0  0  0  0  0  0  0  0  0  0
   -3.0080   -1.2010    0.0000 C   0  0  0  0  0  0  0  0  0  0  0  0
   -3.2630   -0.4160    0.0000 C   0  0  0  0  0  0  0  0  0  0  0  0
   -2.7110    0.1970    0.0000 C   0  0  0  0  0  0  0  0  0  0  0  0
   -1.9040    0.0250    0.0000 C   0  0  0  0  0  0  0  0  0  0  0  0
   -1.6490   -0.7590    0.0000 C   0  0  0  0  0  0  0  0  0  0  0  0
   -0.8420   -0.9310    0.0000 N   0  0  0  0  0  0  0  0  0  0  0  0
   -0.8840   -3.1130    0.0000 C   0  0  0  0  0  0  0  0  0  0  0  0
   -0.0770   -3.2850    0.0000 C   0  0  0  0  0  0  0  0  0  0  0  0
    0.1780   -4.0690    0.0000 N   0  0  0  0  0  0  0  0  0  0  0  0
    0.9850   -4.2410    0.0000 C   0  0  0  0  0  0  0  0  0  0  0  0
    1.2400   -5.0250    0.0000 C   0  0  0  0  0  0  0  0  0  0  0  0
    0.6880   -5.6380    0.0000 C   0  0  0  0  0  0  0  0  0  0  0  0
   -0.1190   -5.4670    0.0000 C   0  0  0  0  0  0  0  0  0  0  0  0
   -0.3740   -4.6820    0.0000 C   0  0  0  0  0  0  0  0  0  0  0  0
    0.9430   -6.4230    0.0000 C   0  0  0  0  0  0  0  0  0  0  0  0
    0.4580   -7.0900    0.0000 N   0  0  0  0  0  0  0  0  0  0  0  0
    0.9430   -7.7580    0.0000 O   0  0  0  0  0  0  0  0  0  0  0  0
    1.7270   -7.5030    0.0000 C   0  0  0  0  0  0  0  0  0  0  0  0
    1.7270   -6.6780    0.0000 C   0  0  0  0  0  0  0  0  0  0  0  0
    2.4420   -6.2660    0.0000 C   0  0  0  0  0  0  0  0  0  0  0  0
    3.1560   -6.6780    0.0000 C   0  0  0  0  0  0  0  0  0  0  0  0
    3.1560   -7.5030    0.0000 C   0  0  0  0  0  0  0  0  0  0  0  0
    2.4420   -7.9160    0.0000 C   0  0  0  0  0  0  0  0  0  0  0  0
    3.8710   -7.9160    0.0000 F   0  0  0  0  0  0  0  0  0  0  0  0
  1  2  1  0  0  0  0
  2  3  2  0  0  0  0
  2 12  1  0  0  0  0
  3  4  1  0  0  0  0
  3 13  1  0  0  0  0
  4  5  2  0  0  0  0
  4  6  1  0  0  0  0
  6  7  1  0  0  0  0
  6 11  1  0  0  0  0
  7  8  1  0  0  0  0
  8  9  1  0  0  0  0
  9 10  1  0  0  0  0
 10 11  1  0  0  0  0
 11 12  2  0  0  0  0
 13 14  1  0  0  0  0
 14 15  1  0  0  0  0
 15 16  1  0  0  0  0
 15 20  1  0  0  0  0
 16 17  1  0  0  0  0
 17 18  1  0  0  0  0
 18 19  1  0  0  0  0
 18 21  1  0  0  0  0
 19 20  1  0  0  0  0
 21 22  2  0  0  0  0
 21 25  1  0  0  0  0
 22 23  1  0  0  0  0
 23 24  1  0  0  0  0
 24 25  1  0  0  0  0
 24 29  2  0  0  0  0
 25 26  2  0  0  0  0
 26 27  1  0  0  0  0
 27 28  2  0  0  0  0
 28 29  1  0  0  0  0
 28 30  1  0  0  0  0
M  END
> <MOL_ID>
18

>  <Name_of_compounds>
Risperidone

>  <Activity_Profiles>
1 1 1 1 1

> <INITIAL_ID>
118

> <SUM_activity>
5

$$$$
102
  MOE2007           2D

 23 26  0  0  0  0  0  0  0  0999 V2000
    4.3940    5.0260    0.0000 C   0  0  0  0  0  0  0  0  0  0  0  0
    4.7520    4.2830    0.0000 N   0  0  0  0  0  0  0  0  0  0  0  0
    5.5740    4.2220    0.0000 C   0  0  0  0  0  0  0  0  0  0  0  0
    5.9320    3.4780    0.0000 C   0  0  0  0  0  0  0  0  0  0  0  0
    5.4680    2.7970    0.0000 N   0  0  0  0  0  0  0  0  0  0  0  0
    4.6450    2.8580    0.0000 C   0  0  0  0  0  0  0  0  0  0  0  0
    4.2870    3.6020    0.0000 C   0  0  0  0  0  0  0  0  0  0  0  0
    5.8260    2.0530    0.0000 C   0  0  0  0  0  0  0  0  0  0  0  0
    6.6510    2.0530    0.0000 N   0  0  0  0  0  0  0  0  0  0  0  0
    7.1650    1.4080    0.0000 C   0  0  0  0  0  0  0  0  0  0  0  0
    7.9530    1.6510    0.0000 C   0  0  0  0  0  0  0  0  0  0  0  0
    8.5580    1.0900    0.0000 C   0  0  0  0  0  0  0  0  0  0  0  0
    8.3750    0.2860    0.0000 C   0  0  0  0  0  0  0  0  0  0  0  0
    7.5860    0.0430    0.0000 C   0  0  0  0  0  0  0  0  0  0  0  0
    6.9820    0.6040    0.0000 C   0  0  0  0  0  0  0  0  0  0  0  0
    6.2380    0.2460    0.0000 O   0  0  0  0  0  0  0  0  0  0  0  0
    5.4950    0.6040    0.0000 C   0  0  0  0  0  0  0  0  0  0  0  0
    5.3110    1.4080    0.0000 C   0  0  0  0  0  0  0  0  0  0  0  0
    4.5230    1.6510    0.0000 C   0  0  0  0  0  0  0  0  0  0  0  0
    3.9180    1.0900    0.0000 C   0  0  0  0  0  0  0  0  0  0  0  0
    4.1020    0.2860    0.0000 C   0  0  0  0  0  0  0  0  0  0  0  0
    4.8900    0.0430    0.0000 C   0  0  0  0  0  0  0  0  0  0  0  0
    3.1300    1.3340    0.0000 Cl  0  0  0  0  0  0  0  0  0  0  0  0
  1  2  1  0  0  0  0
  2  3  1  0  0  0  0
  2  7  1  0  0  0  0
  3  4  1  0  0  0  0
  4  5  1  0  0  0  0
  5  6  1  0  0  0  0
  5  8  1  0  0  0  0
  6  7  1  0  0  0  0
  8  9  2  0  0  0  0
  8 18  1  0  0  0  0
  9 10  1  0  0  0  0
 10 11  1  0  0  0  0
 10 15  2  0  0  0  0
 11 12  2  0  0  0  0
 12 13  1  0  0  0  0
 13 14  2  0  0  0  0
 14 15  1  0  0  0  0
 15 16  1  0  0  0  0
 16 17  1  0  0  0  0
 17 18  1  0  0  0  0
 17 22  2  0  0  0  0
 18 19  2  0  0  0  0
 19 20  1  0  0  0  0
 20 21  2  0  0  0  0
 20 23  1  0  0  0  0
 21 22  1  0  0  0  0
M  END
> <MOL_ID>
4

>  <Name_of_compounds>
Loxapine

>  <Activity_Profiles>
1 1 1 1 1

> <INITIAL_ID>
102

> <SUM_activity>
5

$$$$
101
  MOE2007           2D

 26 28  0  0  0  0  0  0  0  0999 V2000
   -2.0390   -0.1930    0.0000 C   0  0  0  0  0  0  0  0  0  0  0  0
   -1.3250   -0.6060    0.0000 C   0  0  0  0  0  0  0  0  0  0  0  0
   -1.3250   -1.4300    0.0000 N   0  0  0  0  0  0  0  0  0  0  0  0
   -2.0390   -1.8430    0.0000 C   0  0  0  0  0  0  0  0  0  0  0  0
   -2.7540   -1.4300    0.0000 C   0  0  0  0  0  0  0  0  0  0  0  0
   -2.7540   -0.6060    0.0000 C   0  0  0  0  0  0  0  0  0  0  0  0
   -3.5780   -0.5770    0.0000 C   0  0  0  0  0  0  0  0  0  0  0  0
   -4.0150   -1.2760    0.0000 C   0  0  0  0  0  0  0  0  0  0  0  0
   -4.8400   -1.2480    0.0000 C   0  0  0  0  0  0  0  0  0  0  0  0
   -5.2270   -0.5190    0.0000 C   0  0  0  0  0  0  0  0  0  0  0  0
   -4.7900    0.1800    0.0000 C   0  0  0  0  0  0  0  0  0  0  0  0
   -3.9660    0.1520    0.0000 C   0  0  0  0  0  0  0  0  0  0  0  0
   -6.0520   -0.4900    0.0000 Cl  0  0  0  0  0  0  0  0  0  0  0  0
   -3.1910    0.0940    0.0000 O   0  0  0  0  0  0  0  0  0  0  0  0
   -0.6100   -1.8430    0.0000 C   0  0  0  0  0  0  0  0  0  0  0  0
    0.1040   -1.4300    0.0000 C   0  0  0  0  0  0  0  0  0  0  0  0
    0.8190   -1.8430    0.0000 C   0  0  0  0  0  0  0  0  0  0  0  0
    1.5330   -1.4300    0.0000 C   0  0  0  0  0  0  0  0  0  0  0  0
    1.5330   -0.6060    0.0000 O   0  0  0  0  0  0  0  0  0  0  0  0
    2.2480   -1.8430    0.0000 C   0  0  0  0  0  0  0  0  0  0  0  0
    2.9620   -1.4300    0.0000 C   0  0  0  0  0  0  0  0  0  0  0  0
    3.6770   -1.8430    0.0000 C   0  0  0  0  0  0  0  0  0  0  0  0
    3.6770   -2.6680    0.0000 C   0  0  0  0  0  0  0  0  0  0  0  0
    2.9620   -3.0800    0.0000 C   0  0  0  0  0  0  0  0  0  0  0  0
    2.2480   -2.6680    0.0000 C   0  0  0  0  0  0  0  0  0  0  0  0
    4.3910   -3.0800    0.0000 F   0  0  0  0  0  0  0  0  0  0  0  0
  1  2  1  0  0  0  0
  1  6  1  0  0  0  0
  2  3  1  0  0  0  0
  3  4  1  0  0  0  0
  3 15  1  0  0  0  0
  4  5  1  0  0  0  0
  5  6  1  0  0  0  0
  6  7  1  0  0  0  0
  6 14  1  0  0  0  0
  7  8  1  0  0  0  0
  7 12  2  0  0  0  0
  8  9  2  0  0  0  0
  9 10  1  0  0  0  0
 10 11  2  0  0  0  0
 10 13  1  0  0  0  0
 11 12  1  0  0  0  0
 15 16  1  0  0  0  0
 16 17  1  0  0  0  0
 17 18  1  0  0  0  0
 18 19  2  0  0  0  0
 18 20  1  0  0  0  0
 20 21  1  0  0  0  0
 20 25  2  0  0  0  0
 21 22  2  0  0  0  0
 22 23  1  0  0  0  0
 23 24  2  0  0  0  0
 23 26  1  0  0  0  0
 24 25  1  0  0  0  0
M  END
> <MOL_ID>
3

>  <Name_of_compounds>
Haloperidol

>  <Activity_Profiles>
1 1 1 1 1

> <INITIAL_ID>
101

> <SUM_activity>
5

$$$$
105
  MOE2007           2D

 27 29  0  0  0  0  0  0  0  0999 V2000
   -5.1140   -1.0120    0.0000 C   0  0  0  0  0  0  0  0  0  0  0  0
   -4.8320   -0.2370    0.0000 C   0  0  0  0  0  0  0  0  0  0  0  0
   -4.0200   -0.0940    0.0000 C   0  0  0  0  0  0  0  0  0  0  0  0
   -3.4890   -0.7260    0.0000 N   0  0  0  0  0  0  0  0  0  0  0  0
   -3.7720   -1.5010    0.0000 C   0  0  0  0  0  0  0  0  0  0  0  0
   -4.5840   -1.6440    0.0000 C   0  0  0  0  0  0  0  0  0  0  0  0
   -2.6770   -0.5830    0.0000 C   0  0  0  0  0  0  0  0  0  0  0  0
   -1.9620   -0.1700    0.0000 C   0  0  0  0  0  0  0  0  0  0  0  0
   -1.2480   -0.5830    0.0000 C   0  0  0  0  0  0  0  0  0  0  0  0
   -1.2480   -1.4080    0.0000 N   0  0  0  0  0  0  0  0  0  0  0  0
   -1.9620   -1.8200    0.0000 C   0  0  0  0  0  0  0  0  0  0  0  0
   -2.6770   -1.4080    0.0000 C   0  0  0  0  0  0  0  0  0  0  0  0
   -0.5340   -1.8200    0.0000 C   0  0  0  0  0  0  0  0  0  0  0  0
    0.1810   -1.4080    0.0000 C   0  0  0  0  0  0  0  0  0  0  0  0
    0.8950   -1.8200    0.0000 C   0  0  0  0  0  0  0  0  0  0  0  0
    1.6100   -1.4080    0.0000 C   0  0  0  0  0  0  0  0  0  0  0  0
    1.6100   -0.5830    0.0000 O   0  0  0  0  0  0  0  0  0  0  0  0
    2.3240   -1.8200    0.0000 C   0  0  0  0  0  0  0  0  0  0  0  0
    3.0390   -1.4080    0.0000 C   0  0  0  0  0  0  0  0  0  0  0  0
    3.7530   -1.8200    0.0000 C   0  0  0  0  0  0  0  0  0  0  0  0
    3.7530   -2.6450    0.0000 C   0  0  0  0  0  0  0  0  0  0  0  0
    3.0390   -3.0580    0.0000 C   0  0  0  0  0  0  0  0  0  0  0  0
    2.3240   -2.6450    0.0000 C   0  0  0  0  0  0  0  0  0  0  0  0
    4.4680   -3.0580    0.0000 F   0  0  0  0  0  0  0  0  0  0  0  0
   -2.9590    0.1930    0.0000 C   0  0  0  0  0  0  0  0  0  0  0  0
   -2.4290    0.8250    0.0000 O   0  0  0  0  0  0  0  0  0  0  0  0
   -3.7720    0.3360    0.0000 N   0  0  0  0  0  0  0  0  0  0  0  0
  1  2  1  0  0  0  0
  1  6  1  0  0  0  0
  2  3  1  0  0  0  0
  3  4  1  0  0  0  0
  4  5  1  0  0  0  0
  4  7  1  0  0  0  0
  5  6  1  0  0  0  0
  7  8  1  0  0  0  0
  7 12  1  0  0  0  0
  7 25  1  0  0  0  0
  8  9  1  0  0  0  0
  9 10  1  0  0  0  0
 10 11  1  0  0  0  0
 10 13  1  0  0  0  0
 11 12  1  0  0  0  0
 13 14  1  0  0  0  0
 14 15  1  0  0  0  0
 15 16  1  0  0  0  0
 16 17  2  0  0  0  0
 16 18  1  0  0  0  0
 18 19  1  0  0  0  0
 18 23  2  0  0  0  0
 19 20  2  0  0  0  0
 20 21  1  0  0  0  0
 21 22  2  0  0  0  0
 21 24  1  0  0  0  0
 22 23  1  0  0  0  0
 25 26  2  0  0  0  0
 25 27  1  0  0  0  0
M  END
> <MOL_ID>
5

>  <Name_of_compounds>
Pipamperone

>  <Activity_Profiles>
1 1 1 1 1

> <INITIAL_ID>
105

> <SUM_activity>
5

$$$$
98
  MOE2007           2D

 21 23  0  0  0  0  0  0  0  0999 V2000
   -4.2870    0.0000    0.0000 C   0  0  0  0  0  0  0  0  0  0  0  0
   -3.5720   -0.4120    0.0000 N   0  0  0  0  0  0  0  0  0  0  0  0
   -3.5720   -1.2380    0.0000 C   0  0  0  0  0  0  0  0  0  0  0  0
   -2.8580    0.0000    0.0000 C   0  0  0  0  0  0  0  0  0  0  0  0
   -2.1430   -0.4120    0.0000 C   0  0  0  0  0  0  0  0  0  0  0  0
   -1.4290    0.0000    0.0000 C   0  0  0  0  0  0  0  0  0  0  0  0
   -0.7140   -0.4120    0.0000 N   0  0  0  0  0  0  0  0  0  0  0  0
   -0.7140   -1.2380    0.0000 C   0  0  0  0  0  0  0  0  0  0  0  0
   -1.4290   -1.6500    0.0000 C   0  0  0  0  0  0  0  0  0  0  0  0
   -1.4290   -2.4750    0.0000 C   0  0  0  0  0  0  0  0  0  0  0  0
   -0.7140   -2.8880    0.0000 C   0  0  0  0  0  0  0  0  0  0  0  0
    0.0000   -2.4750    0.0000 C   0  0  0  0  0  0  0  0  0  0  0  0
    0.0000   -1.6500    0.0000 C   0  0  0  0  0  0  0  0  0  0  0  0
    0.7140   -1.2380    0.0000 S   0  0  0  0  0  0  0  0  0  0  0  0
    0.7140   -0.4120    0.0000 C   0  0  0  0  0  0  0  0  0  0  0  0
    0.0000    0.0000    0.0000 C   0  0  0  0  0  0  0  0  0  0  0  0
    0.0000    0.8250    0.0000 C   0  0  0  0  0  0  0  0  0  0  0  0
    0.7140    1.2380    0.0000 C   0  0  0  0  0  0  0  0  0  0  0  0
    1.4290    0.8250    0.0000 C   0  0  0  0  0  0  0  0  0  0  0  0
    1.4290    0.0000    0.0000 C   0  0  0  0  0  0  0  0  0  0  0  0
    0.7140    2.0620    0.0000 Cl  0  0  0  0  0  0  0  0  0  0  0  0
  1  2  1  0  0  0  0
  2  3  1  0  0  0  0
  2  4  1  0  0  0  0
  4  5  1  0  0  0  0
  5  6  1  0  0  0  0
  6  7  1  0  0  0  0
  7  8  1  0  0  0  0
  7 16  1  0  0  0  0
  8  9  1  0  0  0  0
  8 13  2  0  0  0  0
  9 10  2  0  0  0  0
 10 11  1  0  0  0  0
 11 12  2  0  0  0  0
 12 13  1  0  0  0  0
 13 14  1  0  0  0  0
 14 15  1  0  0  0  0
 15 16  1  0  0  0  0
 15 20  2  0  0  0  0
 16 17  2  0  0  0  0
 17 18  1  0  0  0  0
 18 19  2  0  0  0  0
 18 21  1  0  0  0  0
 19 20  1  0  0  0  0
M  END
> <MOL_ID>
1

>  <Name_of_compounds>
Chlorpromazine

>  <Activity_Profiles>
1 1 1 1 1

> <INITIAL_ID>
98

> <SUM_activity>
5

$$$$
100
  MOE2007           2D

 30 33  0  0  0  0  0  0  0  0999 V2000
    8.5020   -3.0940    0.0000 C   0  0  0  0  0  0  0  0  0  0  0  0
    9.2170   -3.5060    0.0000 C   0  0  0  0  0  0  0  0  0  0  0  0
    9.2170   -4.3310    0.0000 N   0  0  0  0  0  0  0  0  0  0  0  0
    8.5020   -4.7440    0.0000 C   0  0  0  0  0  0  0  0  0  0  0  0
    7.7880   -4.3310    0.0000 C   0  0  0  0  0  0  0  0  0  0  0  0
    7.7880   -3.5060    0.0000 N   0  0  0  0  0  0  0  0  0  0  0  0
    7.0730   -3.0940    0.0000 C   0  0  0  0  0  0  0  0  0  0  0  0
    7.0730   -2.2690    0.0000 C   0  0  0  0  0  0  0  0  0  0  0  0
    6.3590   -1.8560    0.0000 C   0  0  0  0  0  0  0  0  0  0  0  0
    6.3590   -1.0310    0.0000 N   0  0  0  0  0  0  0  0  0  0  0  0
    7.0730   -0.6190    0.0000 C   0  0  0  0  0  0  0  0  0  0  0  0
    7.7880   -1.0310    0.0000 C   0  0  0  0  0  0  0  0  0  0  0  0
    8.5020   -0.6190    0.0000 C   0  0  0  0  0  0  0  0  0  0  0  0
    8.5020    0.2060    0.0000 C   0  0  0  0  0  0  0  0  0  0  0  0
    7.7880    0.6190    0.0000 C   0  0  0  0  0  0  0  0  0  0  0  0
    7.0730    0.2060    0.0000 C   0  0  0  0  0  0  0  0  0  0  0  0
    6.3590    0.6190    0.0000 S   0  0  0  0  0  0  0  0  0  0  0  0
    5.6440    0.2060    0.0000 C   0  0  0  0  0  0  0  0  0  0  0  0
    5.6440   -0.6190    0.0000 C   0  0  0  0  0  0  0  0  0  0  0  0
    4.9300   -1.0310    0.0000 C   0  0  0  0  0  0  0  0  0  0  0  0
    4.2150   -0.6190    0.0000 C   0  0  0  0  0  0  0  0  0  0  0  0
    4.2150    0.2060    0.0000 C   0  0  0  0  0  0  0  0  0  0  0  0
    4.9300    0.6190    0.0000 C   0  0  0  0  0  0  0  0  0  0  0  0
    3.5010   -1.0310    0.0000 C   0  0  0  0  0  0  0  0  0  0  0  0
    3.0880   -0.3170    0.0000 F   0  0  0  0  0  0  0  0  0  0  0  0
    2.7860   -1.4440    0.0000 F   0  0  0  0  0  0  0  0  0  0  0  0
    3.9130   -1.7460    0.0000 F   0  0  0  0  0  0  0  0  0  0  0  0
    9.9310   -4.7440    0.0000 C   0  0  0  0  0  0  0  0  0  0  0  0
   10.6460   -4.3310    0.0000 C   0  0  0  0  0  0  0  0  0  0  0  0
   11.3600   -4.7440    0.0000 O   0  0  0  0  0  0  0  0  0  0  0  0
  1  2  1  0  0  0  0
  1  6  1  0  0  0  0
  2  3  1  0  0  0  0
  3  4  1  0  0  0  0
  3 28  1  0  0  0  0
  4  5  1  0  0  0  0
  5  6  1  0  0  0  0
  6  7  1  0  0  0  0
  7  8  1  0  0  0  0
  8  9  1  0  0  0  0
  9 10  1  0  0  0  0
 10 11  1  0  0  0  0
 10 19  1  0  0  0  0
 11 12  1  0  0  0  0
 11 16  2  0  0  0  0
 12 13  2  0  0  0  0
 13 14  1  0  0  0  0
 14 15  2  0  0  0  0
 15 16  1  0  0  0  0
 16 17  1  0  0  0  0
 17 18  1  0  0  0  0
 18 19  1  0  0  0  0
 18 23  2  0  0  0  0
 19 20  2  0  0  0  0
 20 21  1  0  0  0  0
 21 22  2  0  0  0  0
 21 24  1  0  0  0  0
 22 23  1  0  0  0  0
 24 25  1  0  0  0  0
 24 26  1  0  0  0  0
 24 27  1  0  0  0  0
 28 29  1  0  0  0  0
 29 30  1  0  0  0  0
M  END
> <MOL_ID>
2

>  <Name_of_compounds>
Fluphenazine

>  <Activity_Profiles>
1 1 1 1 1

> <INITIAL_ID>
100

> <SUM_activity>
5

$$$$
109
  MOE2007           2D

 30 33  0  0  0  0  0  0  0  0999 V2000
    9.8170   -3.0000    0.0000 C   0  0  0  0  0  0  0  0  0  0  0  0
    9.1020   -2.5880    0.0000 N   0  0  0  0  0  0  0  0  0  0  0  0
    8.3880   -3.0000    0.0000 C   0  0  0  0  0  0  0  0  0  0  0  0
    7.6730   -2.5880    0.0000 C   0  0  0  0  0  0  0  0  0  0  0  0
    7.6730   -1.7630    0.0000 N   0  0  0  0  0  0  0  0  0  0  0  0
    8.3880   -1.3500    0.0000 C   0  0  0  0  0  0  0  0  0  0  0  0
    9.1020   -1.7630    0.0000 C   0  0  0  0  0  0  0  0  0  0  0  0
    6.9590   -1.3500    0.0000 C   0  0  0  0  0  0  0  0  0  0  0  0
    6.2440   -1.7630    0.0000 C   0  0  0  0  0  0  0  0  0  0  0  0
    5.5300   -1.3500    0.0000 C   0  0  0  0  0  0  0  0  0  0  0  0
    5.5300   -0.5250    0.0000 C   0  0  0  0  0  0  0  0  0  0  0  0
    6.2440   -0.1130    0.0000 C   0  0  0  0  0  0  0  0  0  0  0  0
    6.9590   -0.5250    0.0000 C   0  0  0  0  0  0  0  0  0  0  0  0
    7.6730   -0.1130    0.0000 C   0  0  0  0  0  0  0  0  0  0  0  0
    7.6730    0.7120    0.0000 C   0  0  0  0  0  0  0  0  0  0  0  0
    6.9590    1.1250    0.0000 C   0  0  0  0  0  0  0  0  0  0  0  0
    6.2440    0.7120    0.0000 C   0  0  0  0  0  0  0  0  0  0  0  0
    5.5300    1.1250    0.0000 S   0  0  0  0  0  0  0  0  0  0  0  0
    4.8150    0.7120    0.0000 C   0  0  0  0  0  0  0  0  0  0  0  0
    4.8150   -0.1130    0.0000 C   0  0  0  0  0  0  0  0  0  0  0  0
    4.1010   -0.5250    0.0000 C   0  0  0  0  0  0  0  0  0  0  0  0
    3.3860   -0.1130    0.0000 C   0  0  0  0  0  0  0  0  0  0  0  0
    3.3860    0.7120    0.0000 C   0  0  0  0  0  0  0  0  0  0  0  0
    4.1010    1.1250    0.0000 C   0  0  0  0  0  0  0  0  0  0  0  0
    2.6720   -0.5250    0.0000 S   0  0  0  0  0  0  0  0  0  0  0  0
    2.2600    0.1890    0.0000 O   0  0  0  0  0  0  0  0  0  0  0  0
    1.9580   -0.9380    0.0000 O   0  0  0  0  0  0  0  0  0  0  0  0
    3.0840   -1.2400    0.0000 N   0  0  0  0  0  0  0  0  0  0  0  0
    3.9100   -1.2400    0.0000 C   0  0  0  0  0  0  0  0  0  0  0  0
    2.6720   -1.9540    0.0000 C   0  0  0  0  0  0  0  0  0  0  0  0
  1  2  1  0  0  0  0
  2  3  1  0  0  0  0
  2  7  1  0  0  0  0
  3  4  1  0  0  0  0
  4  5  1  0  0  0  0
  5  6  1  0  0  0  0
  5  8  1  0  0  0  0
  6  7  1  0  0  0  0
  8  9  1  0  0  0  0
  9 10  1  0  0  0  0
 10 11  2  0  0  0  0
 11 12  1  0  0  0  0
 11 20  1  0  0  0  0
 12 13  1  0  0  0  0
 12 17  2  0  0  0  0
 13 14  2  0  0  0  0
 14 15  1  0  0  0  0
 15 16  2  0  0  0  0
 16 17  1  0  0  0  0
 17 18  1  0  0  0  0
 18 19  1  0  0  0  0
 19 20  1  0  0  0  0
 19 24  2  0  0  0  0
 20 21  2  0  0  0  0
 21 22  1  0  0  0  0
 22 23  2  0  0  0  0
 22 25  1  0  0  0  0
 23 24  1  0  0  0  0
 25 26  2  0  0  0  0
 25 27  2  0  0  0  0
 25 28  1  0  0  0  0
 28 29  1  0  0  0  0
 28 30  1  0  0  0  0
M  END
> <MOL_ID>
9

>  <Name_of_compounds>
Thiothixene

>  <Activity_Profiles>
1 1 1 1 1

> <INITIAL_ID>
109

> <SUM_activity>
5

$$$$
110
  MOE2007           2D

 29 31  0  0  0  0  0  0  0  0999 V2000
   -3.9660   -0.8390    0.0000 C   0  0  0  0  0  0  0  0  0  0  0  0
   -3.2520   -0.4270    0.0000 C   0  0  0  0  0  0  0  0  0  0  0  0
   -2.5380   -0.8390    0.0000 N   0  0  0  0  0  0  0  0  0  0  0  0
   -1.8230   -0.4270    0.0000 C   0  0  0  0  0  0  0  0  0  0  0  0
   -1.8230    0.3980    0.0000 O   0  0  0  0  0  0  0  0  0  0  0  0
   -1.1090   -0.8390    0.0000 N   0  0  0  0  0  0  0  0  0  0  0  0
   -0.3940   -0.4270    0.0000 C   0  0  0  0  0  0  0  0  0  0  0  0
    0.3200   -0.8390    0.0000 C   0  0  0  0  0  0  0  0  0  0  0  0
    0.3200   -1.6640    0.0000 N   0  0  0  0  0  0  0  0  0  0  0  0
   -0.3940   -2.0770    0.0000 C   0  0  0  0  0  0  0  0  0  0  0  0
   -1.1090   -1.6640    0.0000 C   0  0  0  0  0  0  0  0  0  0  0  0
    1.0350   -2.0770    0.0000 C   0  0  0  0  0  0  0  0  0  0  0  0
    1.7490   -1.6640    0.0000 C   0  0  0  0  0  0  0  0  0  0  0  0
    2.4640   -2.0770    0.0000 C   0  0  0  0  0  0  0  0  0  0  0  0
    3.1780   -1.6640    0.0000 C   0  0  0  0  0  0  0  0  0  0  0  0
    3.1780   -0.8390    0.0000 C   0  0  0  0  0  0  0  0  0  0  0  0
    2.4640   -0.4270    0.0000 C   0  0  0  0  0  0  0  0  0  0  0  0
    2.4640    0.3980    0.0000 C   0  0  0  0  0  0  0  0  0  0  0  0
    3.1780    0.8110    0.0000 C   0  0  0  0  0  0  0  0  0  0  0  0
    3.8930    0.3980    0.0000 C   0  0  0  0  0  0  0  0  0  0  0  0
    3.8930   -0.4270    0.0000 C   0  0  0  0  0  0  0  0  0  0  0  0
    3.1780    1.6360    0.0000 F   0  0  0  0  0  0  0  0  0  0  0  0
    3.8930   -2.0770    0.0000 C   0  0  0  0  0  0  0  0  0  0  0  0
    4.6070   -1.6640    0.0000 C   0  0  0  0  0  0  0  0  0  0  0  0
    5.3220   -2.0770    0.0000 C   0  0  0  0  0  0  0  0  0  0  0  0
    5.3220   -2.9020    0.0000 C   0  0  0  0  0  0  0  0  0  0  0  0
    4.6070   -3.3140    0.0000 C   0  0  0  0  0  0  0  0  0  0  0  0
    3.8930   -2.9020    0.0000 C   0  0  0  0  0  0  0  0  0  0  0  0
    6.0360   -3.3140    0.0000 F   0  0  0  0  0  0  0  0  0  0  0  0
  1  2  1  0  0  0  0
  2  3  1  0  0  0  0
  3  4  1  0  0  0  0
  4  5  2  0  0  0  0
  4  6  1  0  0  0  0
  6  7  1  0  0  0  0
  6 11  1  0  0  0  0
  7  8  1  0  0  0  0
  8  9  1  0  0  0  0
  9 10  1  0  0  0  0
  9 12  1  0  0  0  0
 10 11  1  0  0  0  0
 12 13  1  0  0  0  0
 13 14  1  0  0  0  0
 14 15  1  0  0  0  0
 15 16  1  0  0  0  0
 15 23  1  0  0  0  0
 16 17  1  0  0  0  0
 16 21  2  0  0  0  0
 17 18  2  0  0  0  0
 18 19  1  0  0  0  0
 19 20  2  0  0  0  0
 19 22  1  0  0  0  0
 20 21  1  0  0  0  0
 23 24  1  0  0  0  0
 23 28  2  0  0  0  0
 24 25  2  0  0  0  0
 25 26  1  0  0  0  0
 26 27  2  0  0  0  0
 26 29  1  0  0  0  0
 27 28  1  0  0  0  0
M  END
> <MOL_ID>
10

>  <Name_of_compounds>
Amperozide

>  <Activity_Profiles>
1 1 1 1 1

> <INITIAL_ID>
110

> <SUM_activity>
5

$$$$
106
  MOE2007           2D

 29 32  0  0  0  0  0  0  0  0999 V2000
    2.7200    4.4160    0.0000 C   0  0  0  0  0  0  0  0  0  0  0  0
    3.5450    4.4160    0.0000 C   0  0  0  0  0  0  0  0  0  0  0  0
    3.9580    3.7020    0.0000 N   0  0  0  0  0  0  0  0  0  0  0  0
    3.5450    2.9870    0.0000 C   0  0  0  0  0  0  0  0  0  0  0  0
    2.7200    2.9870    0.0000 C   0  0  0  0  0  0  0  0  0  0  0  0
    2.3080    3.7020    0.0000 C   0  0  0  0  0  0  0  0  0  0  0  0
    1.8230    3.0340    0.0000 C   0  0  0  0  0  0  0  0  0  0  0  0
    2.0780    2.2500    0.0000 O   0  0  0  0  0  0  0  0  0  0  0  0
    1.0380    3.2890    0.0000 N   0  0  0  0  0  0  0  0  0  0  0  0
    1.0380    4.1140    0.0000 C   0  0  0  0  0  0  0  0  0  0  0  0
    1.8230    4.3690    0.0000 N   0  0  0  0  0  0  0  0  0  0  0  0
    2.0780    5.1540    0.0000 C   0  0  0  0  0  0  0  0  0  0  0  0
    1.5260    5.7670    0.0000 C   0  0  0  0  0  0  0  0  0  0  0  0
    1.7810    6.5520    0.0000 C   0  0  0  0  0  0  0  0  0  0  0  0
    2.5880    6.7230    0.0000 C   0  0  0  0  0  0  0  0  0  0  0  0
    3.1400    6.1100    0.0000 C   0  0  0  0  0  0  0  0  0  0  0  0
    2.8850    5.3250    0.0000 C   0  0  0  0  0  0  0  0  0  0  0  0
    4.7830    3.7020    0.0000 C   0  0  0  0  0  0  0  0  0  0  0  0
    5.1950    4.4160    0.0000 C   0  0  0  0  0  0  0  0  0  0  0  0
    6.0200    4.4160    0.0000 C   0  0  0  0  0  0  0  0  0  0  0  0
    6.4330    5.1310    0.0000 C   0  0  0  0  0  0  0  0  0  0  0  0
    6.0200    5.8450    0.0000 O   0  0  0  0  0  0  0  0  0  0  0  0
    7.2580    5.1310    0.0000 C   0  0  0  0  0  0  0  0  0  0  0  0
    7.6700    5.8450    0.0000 C   0  0  0  0  0  0  0  0  0  0  0  0
    8.4950    5.8450    0.0000 C   0  0  0  0  0  0  0  0  0  0  0  0
    8.9080    5.1310    0.0000 C   0  0  0  0  0  0  0  0  0  0  0  0
    8.4950    4.4160    0.0000 C   0  0  0  0  0  0  0  0  0  0  0  0
    7.6700    4.4160    0.0000 C   0  0  0  0  0  0  0  0  0  0  0  0
    9.7330    5.1310    0.0000 F   0  0  0  0  0  0  0  0  0  0  0  0
  1  2  1  0  0  0  0
  1  6  1  0  0  0  0
  2  3  1  0  0  0  0
  3  4  1  0  0  0  0
  3 18  1  0  0  0  0
  4  5  1  0  0  0  0
  5  6  1  0  0  0  0
  6  7  1  0  0  0  0
  6 11  1  0  0  0  0
  7  8  2  0  0  0  0
  7  9  1  0  0  0  0
  9 10  1  0  0  0  0
 10 11  1  0  0  0  0
 11 12  1  0  0  0  0
 12 13  1  0  0  0  0
 12 17  2  0  0  0  0
 13 14  2  0  0  0  0
 14 15  1  0  0  0  0
 15 16  2  0  0  0  0
 16 17  1  0  0  0  0
 18 19  1  0  0  0  0
 19 20  1  0  0  0  0
 20 21  1  0  0  0  0
 21 22  2  0  0  0  0
 21 23  1  0  0  0  0
 23 24  1  0  0  0  0
 23 28  2  0  0  0  0
 24 25  2  0  0  0  0
 25 26  1  0  0  0  0
 26 27  2  0  0  0  0
 26 29  1  0  0  0  0
 27 28  1  0  0  0  0
M  END
> <MOL_ID>
6

>  <Name_of_compounds>
Spiperone

>  <Activity_Profiles>
1 1 1 1 1

> <INITIAL_ID>
106

> <SUM_activity>
5

$$$$
108
  MOE2007           2D

 25 28  0  0  1  0  0  0  0  0999 V2000
    7.5160   -3.0200    0.0000 C   0  0  0  0  0  0  0  0  0  0  0  0
    6.8020   -3.4320    0.0000 N   0  0  0  0  0  0  0  0  0  0  0  0
    6.8020   -4.2570    0.0000 C   0  0  0  0  0  0  0  0  0  0  0  0
    6.0870   -4.6700    0.0000 C   0  0  0  0  0  0  0  0  0  0  0  0
    5.3730   -4.2570    0.0000 C   0  0  0  0  0  0  0  0  0  0  0  0
    5.3730   -3.4320    0.0000 C   0  0  0  0  0  0  0  0  0  0  0  0
    6.0870   -3.0200    0.0000 C   0  0  3  0  0  0  0  0  0  0  0  0
    6.0870   -2.1940    0.0000 C   0  0  0  0  0  0  0  0  0  0  0  0
    5.3730   -1.7820    0.0000 C   0  0  0  0  0  0  0  0  0  0  0  0
    5.3730   -0.9570    0.0000 N   0  0  0  0  0  0  0  0  0  0  0  0
    6.0870   -0.5440    0.0000 C   0  0  0  0  0  0  0  0  0  0  0  0
    6.8020   -0.9570    0.0000 C   0  0  0  0  0  0  0  0  0  0  0  0
    7.5160   -0.5440    0.0000 C   0  0  0  0  0  0  0  0  0  0  0  0
    7.5160    0.2800    0.0000 C   0  0  0  0  0  0  0  0  0  0  0  0
    6.8020    0.6930    0.0000 C   0  0  0  0  0  0  0  0  0  0  0  0
    6.0870    0.2800    0.0000 C   0  0  0  0  0  0  0  0  0  0  0  0
    5.3730    0.6930    0.0000 S   0  0  0  0  0  0  0  0  0  0  0  0
    4.6580    0.2800    0.0000 C   0  0  0  0  0  0  0  0  0  0  0  0
    4.6580   -0.5440    0.0000 C   0  0  0  0  0  0  0  0  0  0  0  0
    3.9440   -0.9570    0.0000 C   0  0  0  0  0  0  0  0  0  0  0  0
    3.2290   -0.5440    0.0000 C   0  0  0  0  0  0  0  0  0  0  0  0
    3.2290    0.2800    0.0000 C   0  0  0  0  0  0  0  0  0  0  0  0
    3.9440    0.6930    0.0000 C   0  0  0  0  0  0  0  0  0  0  0  0
    2.5150   -0.9570    0.0000 S   0  0  0  0  0  0  0  0  0  0  0  0
    1.8000   -0.5440    0.0000 C   0  0  0  0  0  0  0  0  0  0  0  0
  1  2  1  0  0  0  0
  2  3  1  0  0  0  0
  2  7  1  0  0  0  0
  3  4  1  0  0  0  0
  4  5  1  0  0  0  0
  5  6  1  0  0  0  0
  6  7  1  0  0  0  0
  7  8  1  0  0  0  0
  8  9  1  0  0  0  0
  9 10  1  0  0  0  0
 10 11  1  0  0  0  0
 10 19  1  0  0  0  0
 11 12  1  0  0  0  0
 11 16  2  0  0  0  0
 12 13  2  0  0  0  0
 13 14  1  0  0  0  0
 14 15  2  0  0  0  0
 15 16  1  0  0  0  0
 16 17  1  0  0  0  0
 17 18  1  0  0  0  0
 18 19  1  0  0  0  0
 18 23  2  0  0  0  0
 19 20  2  0  0  0  0
 20 21  1  0  0  0  0
 21 22  2  0  0  0  0
 21 24  1  0  0  0  0
 22 23  1  0  0  0  0
 24 25  1  0  0  0  0
M  END
> <MOL_ID>
8

>  <Name_of_compounds>
Thioridazine

>  <Activity_Profiles>
1 1 1 1 1

> <INITIAL_ID>
108

> <SUM_activity>
5

$$$$
1308
  MOE2007           2D

 31 35  0  0  0  0  0  0  0  0999 V2000
    0.7850   -0.2550    0.0000 C   0  0  0  0  0  0  0  0  0  0  0  0
    0.0000    0.0000    0.0000 C   0  0  0  0  0  0  0  0  0  0  0  0
    0.0000    0.8250    0.0000 C   0  0  0  0  0  0  0  0  0  0  0  0
    0.7850    1.0800    0.0000 C   0  0  0  0  0  0  0  0  0  0  0  0
    1.2700    0.4120    0.0000 C   0  0  0  0  0  0  0  0  0  0  0  0
    0.2330    1.6930    0.0000 C   0  0  0  0  0  0  0  0  0  0  0  0
    0.4880    2.4780    0.0000 C   0  0  0  0  0  0  0  0  0  0  0  0
   -0.0640    3.0910    0.0000 O   0  0  0  0  0  0  0  0  0  0  0  0
    1.2940    2.6490    0.0000 N   0  0  0  0  0  0  0  0  0  0  0  0
    1.8460    2.0360    0.0000 C   0  0  0  0  0  0  0  0  0  0  0  0
    2.6540    2.2080    0.0000 O   0  0  0  0  0  0  0  0  0  0  0  0
    1.5920    1.2520    0.0000 C   0  0  0  0  0  0  0  0  0  0  0  0
    1.5490    3.4340    0.0000 C   0  0  0  0  0  0  0  0  0  0  0  0
    0.9970    4.0470    0.0000 C   0  0  0  0  0  0  0  0  0  0  0  0
    1.2520    4.8320    0.0000 C   0  0  0  0  0  0  0  0  0  0  0  0
    0.7000    5.4450    0.0000 C   0  0  0  0  0  0  0  0  0  0  0  0
    0.9550    6.2290    0.0000 N   0  0  0  0  0  0  0  0  0  0  0  0
    0.4030    6.8420    0.0000 C   0  0  0  0  0  0  0  0  0  0  0  0
    0.6580    7.6270    0.0000 C   0  0  0  0  0  0  0  0  0  0  0  0
    1.4650    7.7980    0.0000 N   0  0  0  0  0  0  0  0  0  0  0  0
    2.0170    7.1850    0.0000 C   0  0  0  0  0  0  0  0  0  0  0  0
    1.7620    6.4010    0.0000 C   0  0  0  0  0  0  0  0  0  0  0  0
    1.7200    8.5830    0.0000 C   0  0  0  0  0  0  0  0  0  0  0  0
    1.2350    9.2500    0.0000 N   0  0  0  0  0  0  0  0  0  0  0  0
    1.7200    9.9180    0.0000 S   0  0  0  0  0  0  0  0  0  0  0  0
    2.5050    9.6630    0.0000 C   0  0  0  0  0  0  0  0  0  0  0  0
    3.2190   10.0760    0.0000 C   0  0  0  0  0  0  0  0  0  0  0  0
    3.9340    9.6630    0.0000 C   0  0  0  0  0  0  0  0  0  0  0  0
    3.9340    8.8380    0.0000 C   0  0  0  0  0  0  0  0  0  0  0  0
    3.2190    8.4260    0.0000 C   0  0  0  0  0  0  0  0  0  0  0  0
    2.5050    8.8380    0.0000 C   0  0  0  0  0  0  0  0  0  0  0  0
  1  2  1  0  0  0  0
  1  5  1  0  0  0  0
  2  3  1  0  0  0  0
  3  4  1  0  0  0  0
  4  5  1  0  0  0  0
  4  6  1  0  0  0  0
  4 12  1  0  0  0  0
  6  7  1  0  0  0  0
  7  8  2  0  0  0  0
  7  9  1  0  0  0  0
  9 10  1  0  0  0  0
  9 13  1  0  0  0  0
 10 11  2  0  0  0  0
 10 12  1  0  0  0  0
 13 14  1  0  0  0  0
 14 15  1  0  0  0  0
 15 16  1  0  0  0  0
 16 17  1  0  0  0  0
 17 18  1  0  0  0  0
 17 22  1  0  0  0  0
 18 19  1  0  0  0  0
 19 20  1  0  0  0  0
 20 21  1  0  0  0  0
 20 23  1  0  0  0  0
 21 22  1  0  0  0  0
 23 24  2  0  0  0  0
 23 31  1  0  0  0  0
 24 25  1  0  0  0  0
 25 26  1  0  0  0  0
 26 27  1  0  0  0  0
 26 31  2  0  0  0  0
 27 28  2  0  0  0  0
 28 29  1  0  0  0  0
 29 30  2  0  0  0  0
 30 31  1  0  0  0  0
M  END
> <MOL_ID>
60

>  <Name_of_compounds>
tiaspirone

>  <Activity_Profiles>
1 1 1 1 1

> <INITIAL_ID>
1308

> <SUM_activity>
5

$$$$
1307
  MOE2007           2D

 28 31  0  0  0  0  0  0  0  0999 V2000
   10.8520    4.6740    0.0000 C   0  0  0  0  0  0  0  0  0  0  0  0
   10.1380    4.2620    0.0000 C   0  0  0  0  0  0  0  0  0  0  0  0
   10.1380    3.4370    0.0000 C   0  0  0  0  0  0  0  0  0  0  0  0
    9.4230    3.0240    0.0000 C   0  0  0  0  0  0  0  0  0  0  0  0
    9.4230    2.1990    0.0000 O   0  0  0  0  0  0  0  0  0  0  0  0
    8.7090    3.4370    0.0000 N   0  0  0  0  0  0  0  0  0  0  0  0
    7.9240    3.1820    0.0000 C   0  0  0  0  0  0  0  0  0  0  0  0
    7.4390    3.8490    0.0000 C   0  0  0  0  0  0  0  0  0  0  0  0
    7.9240    4.5170    0.0000 S   0  0  0  0  0  0  0  0  0  0  0  0
    8.7090    4.2620    0.0000 C   0  0  0  0  0  0  0  0  0  0  0  0
    9.4230    4.6740    0.0000 N   0  0  0  0  0  0  0  0  0  0  0  0
   10.8520    3.0240    0.0000 C   0  0  0  0  0  0  0  0  0  0  0  0
   11.5660    3.4370    0.0000 C   0  0  0  0  0  0  0  0  0  0  0  0
   12.2810    3.0240    0.0000 N   0  0  0  0  0  0  0  0  0  0  0  0
   12.9960    3.4370    0.0000 C   0  0  0  0  0  0  0  0  0  0  0  0
   13.7100    3.0240    0.0000 C   0  0  0  0  0  0  0  0  0  0  0  0
   13.7100    2.1990    0.0000 C   0  0  0  0  0  0  0  0  0  0  0  0
   12.9960    1.7870    0.0000 C   0  0  0  0  0  0  0  0  0  0  0  0
   12.2810    2.1990    0.0000 C   0  0  0  0  0  0  0  0  0  0  0  0
   14.4240    1.7870    0.0000 C   0  0  0  0  0  0  0  0  0  0  0  0
   14.4240    0.9620    0.0000 O   0  0  0  0  0  0  0  0  0  0  0  0
   15.1390    2.1990    0.0000 C   0  0  0  0  0  0  0  0  0  0  0  0
   15.1390    3.0240    0.0000 C   0  0  0  0  0  0  0  0  0  0  0  0
   15.8530    3.4370    0.0000 C   0  0  0  0  0  0  0  0  0  0  0  0
   16.5680    3.0240    0.0000 C   0  0  0  0  0  0  0  0  0  0  0  0
   16.5680    2.1990    0.0000 C   0  0  0  0  0  0  0  0  0  0  0  0
   15.8530    1.7870    0.0000 C   0  0  0  0  0  0  0  0  0  0  0  0
   17.2820    3.4370    0.0000 F   0  0  0  0  0  0  0  0  0  0  0  0
  1  2  1  0  0  0  0
  2  3  2  0  0  0  0
  2 11  1  0  0  0  0
  3  4  1  0  0  0  0
  3 12  1  0  0  0  0
  4  5  2  0  0  0  0
  4  6  1  0  0  0  0
  6  7  1  0  0  0  0
  6 10  1  0  0  0  0
  7  8  1  0  0  0  0
  8  9  1  0  0  0  0
  9 10  1  0  0  0  0
 10 11  2  0  0  0  0
 12 13  1  0  0  0  0
 13 14  1  0  0  0  0
 14 15  1  0  0  0  0
 14 19  1  0  0  0  0
 15 16  1  0  0  0  0
 16 17  1  0  0  0  0
 17 18  1  0  0  0  0
 17 20  1  0  0  0  0
 18 19  1  0  0  0  0
 20 21  2  0  0  0  0
 20 22  1  0  0  0  0
 22 23  1  0  0  0  0
 22 27  2  0  0  0  0
 23 24  2  0  0  0  0
 24 25  1  0  0  0  0
 25 26  2  0  0  0  0
 25 28  1  0  0  0  0
 26 27  1  0  0  0  0
M  END
> <MOL_ID>
59

>  <Name_of_compounds>
setoperone

>  <Activity_Profiles>
1 1 1 1 1

> <INITIAL_ID>
1307

> <SUM_activity>
5

$$$$
1309
  MOE2007           2D

 26 29  0  0  1  0  0  0  0  0999 V2000
    7.3640   -3.1410    0.0000 C   0  0  0  0  0  0  0  0  0  0  0  0
    6.6500   -3.5540    0.0000 N   0  0  0  0  0  0  0  0  0  0  0  0
    6.6500   -4.3790    0.0000 C   0  0  0  0  0  0  0  0  0  0  0  0
    5.9360   -4.7910    0.0000 C   0  0  0  0  0  0  0  0  0  0  0  0
    5.2210   -4.3790    0.0000 C   0  0  0  0  0  0  0  0  0  0  0  0
    5.2210   -3.5540    0.0000 C   0  0  0  0  0  0  0  0  0  0  0  0
    5.9360   -3.1410    0.0000 C   0  0  3  0  0  0  0  0  0  0  0  0
    5.9360   -2.3160    0.0000 C   0  0  0  0  0  0  0  0  0  0  0  0
    5.2210   -1.9040    0.0000 C   0  0  0  0  0  0  0  0  0  0  0  0
    5.2210   -1.0790    0.0000 N   0  0  0  0  0  0  0  0  0  0  0  0
    5.9360   -0.6660    0.0000 C   0  0  0  0  0  0  0  0  0  0  0  0
    6.6500   -1.0790    0.0000 C   0  0  0  0  0  0  0  0  0  0  0  0
    7.3640   -0.6660    0.0000 C   0  0  0  0  0  0  0  0  0  0  0  0
    7.3640    0.1590    0.0000 C   0  0  0  0  0  0  0  0  0  0  0  0
    6.6500    0.5710    0.0000 C   0  0  0  0  0  0  0  0  0  0  0  0
    5.9360    0.1590    0.0000 C   0  0  0  0  0  0  0  0  0  0  0  0
    5.2210    0.5710    0.0000 S   0  0  0  0  0  0  0  0  0  0  0  0
    4.5070    0.1590    0.0000 C   0  0  0  0  0  0  0  0  0  0  0  0
    4.5070   -0.6660    0.0000 C   0  0  0  0  0  0  0  0  0  0  0  0
    3.7920   -1.0790    0.0000 C   0  0  0  0  0  0  0  0  0  0  0  0
    3.0780   -0.6660    0.0000 C   0  0  0  0  0  0  0  0  0  0  0  0
    3.0780    0.1590    0.0000 C   0  0  0  0  0  0  0  0  0  0  0  0
    3.7920    0.5710    0.0000 C   0  0  0  0  0  0  0  0  0  0  0  0
    2.3630   -1.0790    0.0000 S   0  0  0  0  0  0  0  0  0  0  0  0
    1.6490   -0.6660    0.0000 O   0  0  0  0  0  0  0  0  0  0  0  0
    2.3630   -1.9040    0.0000 C   0  0  0  0  0  0  0  0  0  0  0  0
  1  2  1  0  0  0  0
  2  3  1  0  0  0  0
  2  7  1  0  0  0  0
  3  4  1  0  0  0  0
  4  5  1  0  0  0  0
  5  6  1  0  0  0  0
  6  7  1  0  0  0  0
  7  8  1  0  0  0  0
  8  9  1  0  0  0  0
  9 10  1  0  0  0  0
 10 11  1  0  0  0  0
 10 19  1  0  0  0  0
 11 12  1  0  0  0  0
 11 16  2  0  0  0  0
 12 13  2  0  0  0  0
 13 14  1  0  0  0  0
 14 15  2  0  0  0  0
 15 16  1  0  0  0  0
 16 17  1  0  0  0  0
 17 18  1  0  0  0  0
 18 19  1  0  0  0  0
 18 23  2  0  0  0  0
 19 20  2  0  0  0  0
 20 21  1  0  0  0  0
 21 22  2  0  0  0  0
 21 24  1  0  0  0  0
 22 23  1  0  0  0  0
 24 25  2  0  0  0  0
 24 26  1  0  0  0  0
M  END
> <MOL_ID>
61

>  <Name_of_compounds>
mesoridazine

>  <Activity_Profiles>
1 1 1 1 1

> <INITIAL_ID>
1309

> <SUM_activity>
5

$$$$
1304
  MOE2007           2D

 25 28  0  0  0  0  0  0  0  0999 V2000
    9.9450   -4.4220    0.0000 C   0  0  0  0  0  0  0  0  0  0  0  0
    9.2310   -4.0100    0.0000 N   0  0  0  0  0  0  0  0  0  0  0  0
    8.5160   -4.4220    0.0000 C   0  0  0  0  0  0  0  0  0  0  0  0
    7.8020   -4.0100    0.0000 C   0  0  0  0  0  0  0  0  0  0  0  0
    7.8020   -3.1840    0.0000 N   0  0  0  0  0  0  0  0  0  0  0  0
    8.5160   -2.7720    0.0000 C   0  0  0  0  0  0  0  0  0  0  0  0
    9.2310   -3.1840    0.0000 C   0  0  0  0  0  0  0  0  0  0  0  0
    7.0880   -2.7720    0.0000 C   0  0  0  0  0  0  0  0  0  0  0  0
    7.0880   -1.9470    0.0000 C   0  0  0  0  0  0  0  0  0  0  0  0
    6.3730   -1.5340    0.0000 C   0  0  0  0  0  0  0  0  0  0  0  0
    6.3730   -0.7100    0.0000 N   0  0  0  0  0  0  0  0  0  0  0  0
    7.0880   -0.2970    0.0000 C   0  0  0  0  0  0  0  0  0  0  0  0
    7.8020   -0.7100    0.0000 C   0  0  0  0  0  0  0  0  0  0  0  0
    8.5160   -0.2970    0.0000 C   0  0  0  0  0  0  0  0  0  0  0  0
    8.5160    0.5280    0.0000 C   0  0  0  0  0  0  0  0  0  0  0  0
    7.8020    0.9400    0.0000 C   0  0  0  0  0  0  0  0  0  0  0  0
    7.0880    0.5280    0.0000 C   0  0  0  0  0  0  0  0  0  0  0  0
    6.3730    0.9400    0.0000 S   0  0  0  0  0  0  0  0  0  0  0  0
    5.6590    0.5280    0.0000 C   0  0  0  0  0  0  0  0  0  0  0  0
    5.6590   -0.2970    0.0000 C   0  0  0  0  0  0  0  0  0  0  0  0
    4.9440   -0.7100    0.0000 C   0  0  0  0  0  0  0  0  0  0  0  0
    4.2300   -0.2970    0.0000 C   0  0  0  0  0  0  0  0  0  0  0  0
    4.2300    0.5280    0.0000 C   0  0  0  0  0  0  0  0  0  0  0  0
    4.9440    0.9400    0.0000 C   0  0  0  0  0  0  0  0  0  0  0  0
    3.5150   -0.7100    0.0000 Cl  0  0  0  0  0  0  0  0  0  0  0  0
  1  2  1  0  0  0  0
  2  3  1  0  0  0  0
  2  7  1  0  0  0  0
  3  4  1  0  0  0  0
  4  5  1  0  0  0  0
  5  6  1  0  0  0  0
  5  8  1  0  0  0  0
  6  7  1  0  0  0  0
  8  9  1  0  0  0  0
  9 10  1  0  0  0  0
 10 11  1  0  0  0  0
 11 12  1  0  0  0  0
 11 20  1  0  0  0  0
 12 13  1  0  0  0  0
 12 17  2  0  0  0  0
 13 14  2  0  0  0  0
 14 15  1  0  0  0  0
 15 16  2  0  0  0  0
 16 17  1  0  0  0  0
 17 18  1  0  0  0  0
 18 19  1  0  0  0  0
 19 20  1  0  0  0  0
 19 24  2  0  0  0  0
 20 21  2  0  0  0  0
 21 22  1  0  0  0  0
 22 23  2  0  0  0  0
 22 25  1  0  0  0  0
 23 24  1  0  0  0  0
M  END
> <MOL_ID>
56

>  <Name_of_compounds>
prochlorperazine

>  <Activity_Profiles>
1 1 1 1 1

> <INITIAL_ID>
1304

> <SUM_activity>
5

$$$$
1305
  MOE2007           2D

 27 30  0  0  0  0  0  0  0  0999 V2000
    9.1560   -2.8420    0.0000 C   0  0  0  0  0  0  0  0  0  0  0  0
    9.8700   -3.2540    0.0000 C   0  0  0  0  0  0  0  0  0  0  0  0
    9.8700   -4.0790    0.0000 N   0  0  0  0  0  0  0  0  0  0  0  0
    9.1560   -4.4920    0.0000 C   0  0  0  0  0  0  0  0  0  0  0  0
    8.4410   -4.0790    0.0000 C   0  0  0  0  0  0  0  0  0  0  0  0
    8.4410   -3.2540    0.0000 N   0  0  0  0  0  0  0  0  0  0  0  0
    7.7270   -2.8420    0.0000 C   0  0  0  0  0  0  0  0  0  0  0  0
    7.7270   -2.0170    0.0000 C   0  0  0  0  0  0  0  0  0  0  0  0
    7.0120   -1.6040    0.0000 C   0  0  0  0  0  0  0  0  0  0  0  0
    7.0120   -0.7790    0.0000 N   0  0  0  0  0  0  0  0  0  0  0  0
    7.7270   -0.3670    0.0000 C   0  0  0  0  0  0  0  0  0  0  0  0
    8.4410   -0.7790    0.0000 C   0  0  0  0  0  0  0  0  0  0  0  0
    9.1560   -0.3670    0.0000 C   0  0  0  0  0  0  0  0  0  0  0  0
    9.1560    0.4580    0.0000 C   0  0  0  0  0  0  0  0  0  0  0  0
    8.4410    0.8710    0.0000 C   0  0  0  0  0  0  0  0  0  0  0  0
    7.7270    0.4580    0.0000 C   0  0  0  0  0  0  0  0  0  0  0  0
    7.0120    0.8710    0.0000 S   0  0  0  0  0  0  0  0  0  0  0  0
    6.2980    0.4580    0.0000 C   0  0  0  0  0  0  0  0  0  0  0  0
    6.2980   -0.3670    0.0000 C   0  0  0  0  0  0  0  0  0  0  0  0
    5.5840   -0.7790    0.0000 C   0  0  0  0  0  0  0  0  0  0  0  0
    4.8690   -0.3670    0.0000 C   0  0  0  0  0  0  0  0  0  0  0  0
    4.8690    0.4580    0.0000 C   0  0  0  0  0  0  0  0  0  0  0  0
    5.5840    0.8710    0.0000 C   0  0  0  0  0  0  0  0  0  0  0  0
    4.1540   -0.7790    0.0000 Cl  0  0  0  0  0  0  0  0  0  0  0  0
   10.5850   -4.4920    0.0000 C   0  0  0  0  0  0  0  0  0  0  0  0
   11.2990   -4.0790    0.0000 C   0  0  0  0  0  0  0  0  0  0  0  0
   12.0140   -4.4920    0.0000 O   0  0  0  0  0  0  0  0  0  0  0  0
  1  2  1  0  0  0  0
  1  6  1  0  0  0  0
  2  3  1  0  0  0  0
  3  4  1  0  0  0  0
  3 25  1  0  0  0  0
  4  5  1  0  0  0  0
  5  6  1  0  0  0  0
  6  7  1  0  0  0  0
  7  8  1  0  0  0  0
  8  9  1  0  0  0  0
  9 10  1  0  0  0  0
 10 11  1  0  0  0  0
 10 19  1  0  0  0  0
 11 12  1  0  0  0  0
 11 16  2  0  0  0  0
 12 13  2  0  0  0  0
 13 14  1  0  0  0  0
 14 15  2  0  0  0  0
 15 16  1  0  0  0  0
 16 17  1  0  0  0  0
 17 18  1  0  0  0  0
 18 19  1  0  0  0  0
 18 23  2  0  0  0  0
 19 20  2  0  0  0  0
 20 21  1  0  0  0  0
 21 22  2  0  0  0  0
 21 24  1  0  0  0  0
 22 23  1  0  0  0  0
 25 26  1  0  0  0  0
 26 27  1  0  0  0  0
M  END
> <MOL_ID>
57

>  <Name_of_compounds>
perphenazine

>  <Activity_Profiles>
1 1 1 1 1

> <INITIAL_ID>
1305

> <SUM_activity>
5

$$$$
1798
  MOE2007           2D

 24 27  0  0  1  0  0  0  0  0999 V2000
   -0.3790   -4.5090    0.0000 C   0  0  0  0  0  0  0  0  0  0  0  0
    0.1620   -5.1330    0.0000 O   0  0  0  0  0  0  0  0  0  0  0  0
    0.9720   -4.9770    0.0000 C   0  0  0  0  0  0  0  0  0  0  0  0
    1.5120   -5.6000    0.0000 C   0  0  0  0  0  0  0  0  0  0  0  0
    2.3220   -5.4440    0.0000 C   0  0  0  0  0  0  0  0  0  0  0  0
    2.5920   -4.6650    0.0000 C   0  0  0  0  0  0  0  0  0  0  0  0
    3.4020   -4.5090    0.0000 C   0  0  3  0  0  0  0  0  0  0  0  0
    3.9420   -5.1330    0.0000 C   0  0  0  0  0  0  0  0  0  0  0  0
    4.7520   -4.9770    0.0000 C   0  0  0  0  0  0  0  0  0  0  0  0
    5.0220   -4.1970    0.0000 C   0  0  0  0  0  0  0  0  0  0  0  0
    4.4820   -3.5740    0.0000 C   0  0  0  0  0  0  0  0  0  0  0  0
    3.6720   -3.7290    0.0000 N   0  0  0  0  0  0  0  0  0  0  0  0
    3.1320   -3.1060    0.0000 C   0  0  0  0  0  0  0  0  0  0  0  0
    2.3220   -3.2620    0.0000 C   0  0  0  0  0  0  0  0  0  0  0  0
    2.0520   -4.0410    0.0000 C   0  0  0  0  0  0  0  0  0  0  0  0
    1.2420   -4.1970    0.0000 C   0  0  0  0  0  0  0  0  0  0  0  0
    5.8320   -4.0410    0.0000 C   0  0  0  0  0  0  0  0  0  0  0  0
    6.3720   -4.6650    0.0000 C   0  0  0  0  0  0  0  0  0  0  0  0
    6.1020   -5.4440    0.0000 C   0  0  0  0  0  0  0  0  0  0  0  0
    5.2920   -5.6000    0.0000 C   0  0  0  0  0  0  0  0  0  0  0  0
    7.1830   -4.5090    0.0000 O   0  0  0  0  0  0  0  0  0  0  0  0
    6.1020   -3.2620    0.0000 O   0  0  0  0  0  0  0  0  0  0  0  0
    6.9130   -3.1060    0.0000 C   0  0  0  0  0  0  0  0  0  0  0  0
    1.2420   -6.3800    0.0000 O   0  0  0  0  0  0  0  0  0  0  0  0
  1  2  1  0  0  0  0
  2  3  1  0  0  0  0
  3  4  1  0  0  0  0
  3 16  2  0  0  0  0
  4  5  2  0  0  0  0
  4 24  1  0  0  0  0
  5  6  1  0  0  0  0
  6  7  1  0  0  0  0
  6 15  2  0  0  0  0
  7  8  1  0  0  0  0
  7 12  1  0  0  0  0
  8  9  1  0  0  0  0
  9 10  1  0  0  0  0
  9 20  2  0  0  0  0
 10 11  1  0  0  0  0
 10 17  2  0  0  0  0
 11 12  1  0  0  0  0
 12 13  1  0  0  0  0
 13 14  1  0  0  0  0
 14 15  1  0  0  0  0
 15 16  1  0  0  0  0
 17 18  1  0  0  0  0
 17 22  1  0  0  0  0
 18 19  2  0  0  0  0
 18 21  1  0  0  0  0
 19 20  1  0  0  0  0
 22 23  1  0  0  0  0
M  END
> <MOL_ID>
102

>  <Name_of_compounds>
Stepholidine

>  <Activity_Profiles>
1 1 1 1 1

> <INITIAL_ID>
1798

> <SUM_activity>
5

$$$$
1896
  MOE2007           2D

 22 25  0  0  0  0  0  0  0  0999 V2000
    5.5920    3.9250    0.0000 C   0  0  0  0  0  0  0  0  0  0  0  0
    5.9500    3.1820    0.0000 C   0  0  0  0  0  0  0  0  0  0  0  0
    5.4850    2.5000    0.0000 N   0  0  0  0  0  0  0  0  0  0  0  0
    4.6630    2.5620    0.0000 C   0  0  0  0  0  0  0  0  0  0  0  0
    4.3050    3.3050    0.0000 C   0  0  0  0  0  0  0  0  0  0  0  0
    4.7690    3.9860    0.0000 N   0  0  0  0  0  0  0  0  0  0  0  0
    5.8430    1.7570    0.0000 C   0  0  0  0  0  0  0  0  0  0  0  0
    6.6680    1.7570    0.0000 N   0  0  0  0  0  0  0  0  0  0  0  0
    7.1830    1.1120    0.0000 C   0  0  0  0  0  0  0  0  0  0  0  0
    7.9710    1.3550    0.0000 C   0  0  0  0  0  0  0  0  0  0  0  0
    8.5760    0.7940    0.0000 C   0  0  0  0  0  0  0  0  0  0  0  0
    8.3920   -0.0110    0.0000 C   0  0  0  0  0  0  0  0  0  0  0  0
    7.6040   -0.2540    0.0000 C   0  0  0  0  0  0  0  0  0  0  0  0
    6.9990    0.3070    0.0000 C   0  0  0  0  0  0  0  0  0  0  0  0
    6.2560   -0.0510    0.0000 O   0  0  0  0  0  0  0  0  0  0  0  0
    5.5120    0.3070    0.0000 C   0  0  0  0  0  0  0  0  0  0  0  0
    5.3290    1.1120    0.0000 C   0  0  0  0  0  0  0  0  0  0  0  0
    4.5400    1.3550    0.0000 C   0  0  0  0  0  0  0  0  0  0  0  0
    3.9360    0.7940    0.0000 C   0  0  0  0  0  0  0  0  0  0  0  0
    4.1190   -0.0110    0.0000 C   0  0  0  0  0  0  0  0  0  0  0  0
    4.9080   -0.2540    0.0000 C   0  0  0  0  0  0  0  0  0  0  0  0
    3.1470    1.0370    0.0000 Cl  0  0  0  0  0  0  0  0  0  0  0  0
  1  2  1  0  0  0  0
  1  6  1  0  0  0  0
  2  3  1  0  0  0  0
  3  4  1  0  0  0  0
  3  7  1  0  0  0  0
  4  5  1  0  0  0  0
  5  6  1  0  0  0  0
  7  8  2  0  0  0  0
  7 17  1  0  0  0  0
  8  9  1  0  0  0  0
  9 10  1  0  0  0  0
  9 14  2  0  0  0  0
 10 11  2  0  0  0  0
 11 12  1  0  0  0  0
 12 13  2  0  0  0  0
 13 14  1  0  0  0  0
 14 15  1  0  0  0  0
 15 16  1  0  0  0  0
 16 17  1  0  0  0  0
 16 21  2  0  0  0  0
 17 18  2  0  0  0  0
 18 19  1  0  0  0  0
 19 20  2  0  0  0  0
 19 22  1  0  0  0  0
 20 21  1  0  0  0  0
M  END
> <MOL_ID>
105

>  <Name_of_compounds>
Amoxapine

>  <Activity_Profiles>
1 1 1 1 1

> <INITIAL_ID>
1896

> <SUM_activity>
5

$$$$
1310
  MOE2007           2D

 34 38  0  0  0  0  0  0  0  0999 V2000
   -0.1480    7.0980    0.0000 C   0  0  0  0  0  0  0  0  0  0  0  0
   -0.4030    7.8820    0.0000 C   0  0  0  0  0  0  0  0  0  0  0  0
    0.1490    8.4950    0.0000 N   0  0  0  0  0  0  0  0  0  0  0  0
    0.9560    8.3240    0.0000 C   0  0  0  0  0  0  0  0  0  0  0  0
    1.2110    7.5390    0.0000 C   0  0  0  0  0  0  0  0  0  0  0  0
    0.6590    6.9260    0.0000 C   0  0  0  0  0  0  0  0  0  0  0  0
    0.9140    6.1410    0.0000 N   0  0  0  0  0  0  0  0  0  0  0  0
    1.6980    5.8860    0.0000 C   0  0  0  0  0  0  0  0  0  0  0  0
    2.4130    6.2990    0.0000 C   0  0  0  0  0  0  0  0  0  0  0  0
    3.1270    5.8860    0.0000 C   0  0  0  0  0  0  0  0  0  0  0  0
    3.1270    5.0620    0.0000 C   0  0  0  0  0  0  0  0  0  0  0  0
    2.4130    4.6490    0.0000 C   0  0  0  0  0  0  0  0  0  0  0  0
    1.6980    5.0620    0.0000 C   0  0  0  0  0  0  0  0  0  0  0  0
    0.9140    4.8060    0.0000 N   0  0  0  0  0  0  0  0  0  0  0  0
    0.4290    5.4740    0.0000 C   0  0  0  0  0  0  0  0  0  0  0  0
   -0.3960    5.4740    0.0000 O   0  0  0  0  0  0  0  0  0  0  0  0
   -0.1060    9.2800    0.0000 C   0  0  0  0  0  0  0  0  0  0  0  0
   -0.9130    9.4510    0.0000 C   0  0  0  0  0  0  0  0  0  0  0  0
   -1.1680   10.2360    0.0000 C   0  0  0  0  0  0  0  0  0  0  0  0
   -1.9750   10.4080    0.0000 C   0  0  0  0  0  0  0  0  0  0  0  0
   -2.5270    9.7940    0.0000 C   0  0  0  0  0  0  0  0  0  0  0  0
   -2.2720    9.0100    0.0000 C   0  0  0  0  0  0  0  0  0  0  0  0
   -2.8240    8.3970    0.0000 C   0  0  0  0  0  0  0  0  0  0  0  0
   -3.6310    8.5680    0.0000 C   0  0  0  0  0  0  0  0  0  0  0  0
   -3.8860    9.3530    0.0000 C   0  0  0  0  0  0  0  0  0  0  0  0
   -3.3340    9.9660    0.0000 C   0  0  0  0  0  0  0  0  0  0  0  0
   -4.1830    7.9550    0.0000 F   0  0  0  0  0  0  0  0  0  0  0  0
   -2.2300   11.1920    0.0000 C   0  0  0  0  0  0  0  0  0  0  0  0
   -3.0370   11.3640    0.0000 C   0  0  0  0  0  0  0  0  0  0  0  0
   -3.2920   12.1480    0.0000 C   0  0  0  0  0  0  0  0  0  0  0  0
   -2.7400   12.7610    0.0000 C   0  0  0  0  0  0  0  0  0  0  0  0
   -1.9330   12.5900    0.0000 C   0  0  0  0  0  0  0  0  0  0  0  0
   -1.6780   11.8050    0.0000 C   0  0  0  0  0  0  0  0  0  0  0  0
   -2.9950   13.5460    0.0000 F   0  0  0  0  0  0  0  0  0  0  0  0
  1  2  1  0  0  0  0
  1  6  1  0  0  0  0
  2  3  1  0  0  0  0
  3  4  1  0  0  0  0
  3 17  1  0  0  0  0
  4  5  1  0  0  0  0
  5  6  1  0  0  0  0
  6  7  1  0  0  0  0
  7  8  1  0  0  0  0
  7 15  1  0  0  0  0
  8  9  1  0  0  0  0
  8 13  2  0  0  0  0
  9 10  2  0  0  0  0
 10 11  1  0  0  0  0
 11 12  2  0  0  0  0
 12 13  1  0  0  0  0
 13 14  1  0  0  0  0
 14 15  1  0  0  0  0
 15 16  2  0  0  0  0
 17 18  1  0  0  0  0
 18 19  1  0  0  0  0
 19 20  1  0  0  0  0
 20 21  1  0  0  0  0
 20 28  1  0  0  0  0
 21 22  1  0  0  0  0
 21 26  2  0  0  0  0
 22 23  2  0  0  0  0
 23 24  1  0  0  0  0
 24 25  2  0  0  0  0
 24 27  1  0  0  0  0
 25 26  1  0  0  0  0
 28 29  1  0  0  0  0
 28 33  2  0  0  0  0
 29 30  2  0  0  0  0
 30 31  1  0  0  0  0
 31 32  2  0  0  0  0
 31 34  1  0  0  0  0
 32 33  1  0  0  0  0
M  END
> <MOL_ID>
62

>  <Name_of_compounds>
pimozide

>  <Activity_Profiles>
1 1 1 1 1

> <INITIAL_ID>
1310

> <SUM_activity>
5

$$$$
1350
  MOE2007           2D

 21 23  0  0  0  0  0  0  0  0999 V2000
    9.0080    4.5170    0.0000 C   0  0  0  0  0  0  0  0  0  0  0  0
    9.0080    3.6920    0.0000 N   0  0  0  0  0  0  0  0  0  0  0  0
    9.7220    3.2790    0.0000 C   0  0  0  0  0  0  0  0  0  0  0  0
    8.2940    3.2790    0.0000 C   0  0  0  0  0  0  0  0  0  0  0  0
    8.2940    2.4540    0.0000 C   0  0  0  0  0  0  0  0  0  0  0  0
    7.5790    2.0420    0.0000 C   0  0  0  0  0  0  0  0  0  0  0  0
    7.5790    1.2170    0.0000 C   0  0  0  0  0  0  0  0  0  0  0  0
    8.3220    0.8590    0.0000 C   0  0  0  0  0  0  0  0  0  0  0  0
    8.9270    1.4200    0.0000 C   0  0  0  0  0  0  0  0  0  0  0  0
    9.7160    1.1770    0.0000 C   0  0  0  0  0  0  0  0  0  0  0  0
    9.8990    0.3730    0.0000 C   0  0  0  0  0  0  0  0  0  0  0  0
    9.2940   -0.1880    0.0000 C   0  0  0  0  0  0  0  0  0  0  0  0
    8.5060    0.0550    0.0000 C   0  0  0  0  0  0  0  0  0  0  0  0
    7.9920   -0.5900    0.0000 C   0  0  0  0  0  0  0  0  0  0  0  0
    7.1670   -0.5900    0.0000 C   0  0  0  0  0  0  0  0  0  0  0  0
    6.6520    0.0550    0.0000 C   0  0  0  0  0  0  0  0  0  0  0  0
    6.8360    0.8590    0.0000 C   0  0  0  0  0  0  0  0  0  0  0  0
    6.2310    1.4200    0.0000 C   0  0  0  0  0  0  0  0  0  0  0  0
    5.4430    1.1770    0.0000 C   0  0  0  0  0  0  0  0  0  0  0  0
    5.2590    0.3730    0.0000 C   0  0  0  0  0  0  0  0  0  0  0  0
    5.8640   -0.1880    0.0000 C   0  0  0  0  0  0  0  0  0  0  0  0
  1  2  1  0  0  0  0
  2  3  1  0  0  0  0
  2  4  1  0  0  0  0
  4  5  1  0  0  0  0
  5  6  1  0  0  0  0
  6  7  2  0  0  0  0
  7  8  1  0  0  0  0
  7 17  1  0  0  0  0
  8  9  1  0  0  0  0
  8 13  2  0  0  0  0
  9 10  2  0  0  0  0
 10 11  1  0  0  0  0
 11 12  2  0  0  0  0
 12 13  1  0  0  0  0
 13 14  1  0  0  0  0
 14 15  2  0  0  0  0
 15 16  1  0  0  0  0
 16 17  1  0  0  0  0
 16 21  2  0  0  0  0
 17 18  2  0  0  0  0
 18 19  1  0  0  0  0
 19 20  2  0  0  0  0
 20 21  1  0  0  0  0
M  END
> <MOL_ID>
81

>  <Name_of_compounds>
Cyclobenzaprine

>  <Activity_Profiles>
1 1 1 1 1

> <INITIAL_ID>
1350

> <SUM_activity>
5

$$$$
127
  MOE2007           2D

 34 38  0  0  0  0  0  0  0  0999 V2000
   11.9480    4.1320    0.0000 C   0  0  0  0  0  0  0  0  0  0  0  0
   11.2340    3.7200    0.0000 C   0  0  0  0  0  0  0  0  0  0  0  0
   11.2340    2.8950    0.0000 C   0  0  0  0  0  0  0  0  0  0  0  0
   10.5190    2.4820    0.0000 C   0  0  0  0  0  0  0  0  0  0  0  0
   10.5190    1.6570    0.0000 O   0  0  0  0  0  0  0  0  0  0  0  0
    9.8050    2.8950    0.0000 N   0  0  0  0  0  0  0  0  0  0  0  0
    9.0200    2.6400    0.0000 C   0  0  0  0  0  0  0  0  0  0  0  0
    8.5350    3.3070    0.0000 C   0  0  0  0  0  0  0  0  0  0  0  0
    9.0200    3.9750    0.0000 S   0  0  0  0  0  0  0  0  0  0  0  0
    9.8050    3.7200    0.0000 C   0  0  0  0  0  0  0  0  0  0  0  0
   10.5190    4.1320    0.0000 N   0  0  0  0  0  0  0  0  0  0  0  0
   11.9480    2.4820    0.0000 C   0  0  0  0  0  0  0  0  0  0  0  0
   12.6630    2.8950    0.0000 C   0  0  0  0  0  0  0  0  0  0  0  0
   13.3770    2.4820    0.0000 N   0  0  0  0  0  0  0  0  0  0  0  0
   14.0920    2.8950    0.0000 C   0  0  0  0  0  0  0  0  0  0  0  0
   14.8060    2.4820    0.0000 C   0  0  0  0  0  0  0  0  0  0  0  0
   14.8060    1.6570    0.0000 C   0  0  0  0  0  0  0  0  0  0  0  0
   15.5210    1.2450    0.0000 C   0  0  0  0  0  0  0  0  0  0  0  0
   16.2350    1.6570    0.0000 C   0  0  0  0  0  0  0  0  0  0  0  0
   16.2350    2.4820    0.0000 C   0  0  0  0  0  0  0  0  0  0  0  0
   16.9500    2.8950    0.0000 C   0  0  0  0  0  0  0  0  0  0  0  0
   17.6640    2.4820    0.0000 C   0  0  0  0  0  0  0  0  0  0  0  0
   17.6640    1.6570    0.0000 C   0  0  0  0  0  0  0  0  0  0  0  0
   16.9500    1.2450    0.0000 C   0  0  0  0  0  0  0  0  0  0  0  0
   18.3790    2.8950    0.0000 F   0  0  0  0  0  0  0  0  0  0  0  0
   15.5210    0.4200    0.0000 C   0  0  0  0  0  0  0  0  0  0  0  0
   16.2350    0.0070    0.0000 C   0  0  0  0  0  0  0  0  0  0  0  0
   16.2350   -0.8180    0.0000 C   0  0  0  0  0  0  0  0  0  0  0  0
   15.5210   -1.2300    0.0000 C   0  0  0  0  0  0  0  0  0  0  0  0
   14.8060   -0.8180    0.0000 C   0  0  0  0  0  0  0  0  0  0  0  0
   14.8060    0.0070    0.0000 C   0  0  0  0  0  0  0  0  0  0  0  0
   15.5210   -2.0550    0.0000 F   0  0  0  0  0  0  0  0  0  0  0  0
   14.0920    1.2450    0.0000 C   0  0  0  0  0  0  0  0  0  0  0  0
   13.3770    1.6570    0.0000 C   0  0  0  0  0  0  0  0  0  0  0  0
  1  2  1  0  0  0  0
  2  3  2  0  0  0  0
  2 11  1  0  0  0  0
  3  4  1  0  0  0  0
  3 12  1  0  0  0  0
  4  5  2  0  0  0  0
  4  6  1  0  0  0  0
  6  7  1  0  0  0  0
  6 10  1  0  0  0  0
  7  8  2  0  0  0  0
  8  9  1  0  0  0  0
  9 10  1  0  0  0  0
 10 11  2  0  0  0  0
 12 13  1  0  0  0  0
 13 14  1  0  0  0  0
 14 15  1  0  0  0  0
 14 34  1  0  0  0  0
 15 16  1  0  0  0  0
 16 17  1  0  0  0  0
 17 18  2  0  0  0  0
 17 33  1  0  0  0  0
 18 19  1  0  0  0  0
 18 26  1  0  0  0  0
 19 20  1  0  0  0  0
 19 24  2  0  0  0  0
 20 21  2  0  0  0  0
 21 22  1  0  0  0  0
 22 23  2  0  0  0  0
 22 25  1  0  0  0  0
 23 24  1  0  0  0  0
 26 27  1  0  0  0  0
 26 31  2  0  0  0  0
 27 28  2  0  0  0  0
 28 29  1  0  0  0  0
 29 30  2  0  0  0  0
 29 32  1  0  0  0  0
 30 31  1  0  0  0  0
 33 34  1  0  0  0  0
M  END
> <MOL_ID>
26

>  <Name_of_compounds>
Ritanserin

>  <Activity_Profiles>
1 1 1 1 1

> <INITIAL_ID>
127

> <SUM_activity>
5

$$$$
125
  MOE2007           2D

 22 25  0  0  0  0  0  0  0  0999 V2000
    7.0480    4.8630    0.0000 Cl  0  0  0  0  0  0  0  0  0  0  0  0
    6.2600    4.6200    0.0000 C   0  0  0  0  0  0  0  0  0  0  0  0
    5.6550    5.1810    0.0000 C   0  0  0  0  0  0  0  0  0  0  0  0
    4.8660    4.9380    0.0000 C   0  0  0  0  0  0  0  0  0  0  0  0
    4.6830    4.1340    0.0000 C   0  0  0  0  0  0  0  0  0  0  0  0
    3.9400    3.7760    0.0000 N   0  0  0  0  0  0  0  0  0  0  0  0
    3.1960    4.1340    0.0000 C   0  0  0  0  0  0  0  0  0  0  0  0
    2.5920    3.5730    0.0000 C   0  0  0  0  0  0  0  0  0  0  0  0
    1.8030    3.8160    0.0000 C   0  0  0  0  0  0  0  0  0  0  0  0
    1.6200    4.6200    0.0000 C   0  0  0  0  0  0  0  0  0  0  0  0
    2.2240    5.1810    0.0000 C   0  0  0  0  0  0  0  0  0  0  0  0
    3.0130    4.9380    0.0000 C   0  0  0  0  0  0  0  0  0  0  0  0
    3.5270    5.5830    0.0000 C   0  0  0  0  0  0  0  0  0  0  0  0
    3.1690    6.3260    0.0000 N   0  0  0  0  0  0  0  0  0  0  0  0
    2.3460    6.3880    0.0000 C   0  0  0  0  0  0  0  0  0  0  0  0
    1.9880    7.1310    0.0000 C   0  0  0  0  0  0  0  0  0  0  0  0
    2.4530    7.8130    0.0000 N   0  0  0  0  0  0  0  0  0  0  0  0
    3.2760    7.7510    0.0000 C   0  0  0  0  0  0  0  0  0  0  0  0
    3.6340    7.0080    0.0000 C   0  0  0  0  0  0  0  0  0  0  0  0
    4.3520    5.5830    0.0000 N   0  0  0  0  0  0  0  0  0  0  0  0
    5.2880    3.5730    0.0000 C   0  0  0  0  0  0  0  0  0  0  0  0
    6.0760    3.8160    0.0000 C   0  0  0  0  0  0  0  0  0  0  0  0
  1  2  1  0  0  0  0
  2  3  1  0  0  0  0
  2 22  2  0  0  0  0
  3  4  2  0  0  0  0
  4  5  1  0  0  0  0
  4 20  1  0  0  0  0
  5  6  1  0  0  0  0
  5 21  2  0  0  0  0
  6  7  1  0  0  0  0
  7  8  1  0  0  0  0
  7 12  2  0  0  0  0
  8  9  2  0  0  0  0
  9 10  1  0  0  0  0
 10 11  2  0  0  0  0
 11 12  1  0  0  0  0
 12 13  1  0  0  0  0
 13 14  1  0  0  0  0
 13 20  2  0  0  0  0
 14 15  1  0  0  0  0
 14 19  1  0  0  0  0
 15 16  1  0  0  0  0
 16 17  1  0  0  0  0
 17 18  1  0  0  0  0
 18 19  1  0  0  0  0
 21 22  1  0  0  0  0
M  END
> <MOL_ID>
24

>  <Name_of_compounds>
N-desmethylclozappine

>  <Activity_Profiles>
1 1 1 1 1

> <INITIAL_ID>
125

> <SUM_activity>
5

$$$$
609
  MOE2007           2D

 29 32  0  0  0  0  0  0  0  0999 V2000
   -5.3960    4.6510    0.0000 C   0  0  0  0  0  0  0  0  0  0  0  0
   -4.6810    4.2390    0.0000 C   0  0  0  0  0  0  0  0  0  0  0  0
   -4.6810    3.4140    0.0000 N   0  0  0  0  0  0  0  0  0  0  0  0
   -5.3960    3.0010    0.0000 C   0  0  0  0  0  0  0  0  0  0  0  0
   -6.1100    3.4140    0.0000 C   0  0  0  0  0  0  0  0  0  0  0  0
   -6.1100    4.2390    0.0000 C   0  0  0  0  0  0  0  0  0  0  0  0
   -6.8240    4.6510    0.0000 C   0  0  0  0  0  0  0  0  0  0  0  0
   -6.8240    5.4760    0.0000 O   0  0  0  0  0  0  0  0  0  0  0  0
   -7.5390    4.2390    0.0000 C   0  0  0  0  0  0  0  0  0  0  0  0
   -7.5390    3.4140    0.0000 C   0  0  0  0  0  0  0  0  0  0  0  0
   -8.2530    3.0010    0.0000 C   0  0  0  0  0  0  0  0  0  0  0  0
   -8.9680    3.4140    0.0000 C   0  0  0  0  0  0  0  0  0  0  0  0
   -8.9680    4.2390    0.0000 C   0  0  0  0  0  0  0  0  0  0  0  0
   -8.2530    4.6510    0.0000 C   0  0  0  0  0  0  0  0  0  0  0  0
   -9.6820    3.0010    0.0000 F   0  0  0  0  0  0  0  0  0  0  0  0
   -3.9660    3.0010    0.0000 C   0  0  0  0  0  0  0  0  0  0  0  0
   -3.2520    3.4140    0.0000 C   0  0  0  0  0  0  0  0  0  0  0  0
   -2.5380    3.0010    0.0000 N   0  0  0  0  0  0  0  0  0  0  0  0
   -1.8230    3.4140    0.0000 C   0  0  0  0  0  0  0  0  0  0  0  0
   -1.8230    4.2390    0.0000 O   0  0  0  0  0  0  0  0  0  0  0  0
   -1.1090    3.0010    0.0000 C   0  0  0  0  0  0  0  0  0  0  0  0
   -0.3940    3.4140    0.0000 C   0  0  0  0  0  0  0  0  0  0  0  0
    0.3200    3.0010    0.0000 C   0  0  0  0  0  0  0  0  0  0  0  0
    0.3200    2.1760    0.0000 C   0  0  0  0  0  0  0  0  0  0  0  0
   -0.3940    1.7640    0.0000 C   0  0  0  0  0  0  0  0  0  0  0  0
   -1.1090    2.1760    0.0000 C   0  0  0  0  0  0  0  0  0  0  0  0
   -1.8230    1.7640    0.0000 N   0  0  0  0  0  0  0  0  0  0  0  0
   -2.5380    2.1760    0.0000 C   0  0  0  0  0  0  0  0  0  0  0  0
   -3.2520    1.7640    0.0000 O   0  0  0  0  0  0  0  0  0  0  0  0
  1  2  1  0  0  0  0
  1  6  1  0  0  0  0
  2  3  1  0  0  0  0
  3  4  1  0  0  0  0
  3 16  1  0  0  0  0
  4  5  1  0  0  0  0
  5  6  1  0  0  0  0
  6  7  1  0  0  0  0
  7  8  2  0  0  0  0
  7  9  1  0  0  0  0
  9 10  1  0  0  0  0
  9 14  2  0  0  0  0
 10 11  2  0  0  0  0
 11 12  1  0  0  0  0
 12 13  2  0  0  0  0
 12 15  1  0  0  0  0
 13 14  1  0  0  0  0
 16 17  1  0  0  0  0
 17 18  1  0  0  0  0
 18 19  1  0  0  0  0
 18 28  1  0  0  0  0
 19 20  2  0  0  0  0
 19 21  1  0  0  0  0
 21 22  1  0  0  0  0
 21 26  2  0  0  0  0
 22 23  2  0  0  0  0
 23 24  1  0  0  0  0
 24 25  2  0  0  0  0
 25 26  1  0  0  0  0
 26 27  1  0  0  0  0
 27 28  1  0  0  0  0
 28 29  2  0  0  0  0
M  END
> <MOL_ID>
42

>  <Name_of_compounds>
Ketanserin

>  <Activity_Profiles>
1 1 1 1 1

> <INITIAL_ID>
609

> <SUM_activity>
5

$$$$
123
  MOE2007           2D

 23 26  0  0  0  0  0  0  0  0999 V2000
   -1.6950   -2.5090    0.0000 Cl  0  0  0  0  0  0  0  0  0  0  0  0
   -0.9060   -2.2660    0.0000 C   0  0  0  0  0  0  0  0  0  0  0  0
   -0.7230   -1.4620    0.0000 C   0  0  0  0  0  0  0  0  0  0  0  0
    0.0650   -1.2180    0.0000 C   0  0  0  0  0  0  0  0  0  0  0  0
    0.6700   -1.7800    0.0000 C   0  0  0  0  0  0  0  0  0  0  0  0
    1.4140   -1.4220    0.0000 O   0  0  0  0  0  0  0  0  0  0  0  0
    2.1570   -1.7800    0.0000 C   0  0  0  0  0  0  0  0  0  0  0  0
    2.7620   -1.2180    0.0000 N   0  0  0  0  0  0  0  0  0  0  0  0
    3.5500   -1.4620    0.0000 C   0  0  0  0  0  0  0  0  0  0  0  0
    3.7340   -2.2660    0.0000 C   0  0  0  0  0  0  0  0  0  0  0  0
    3.1290   -2.8270    0.0000 C   0  0  0  0  0  0  0  0  0  0  0  0
    2.3400   -2.5840    0.0000 C   0  0  0  0  0  0  0  0  0  0  0  0
    1.8260   -3.2290    0.0000 C   0  0  0  0  0  0  0  0  0  0  0  0
    2.1840   -3.9720    0.0000 N   0  0  0  0  0  0  0  0  0  0  0  0
    3.0070   -4.0340    0.0000 C   0  0  0  0  0  0  0  0  0  0  0  0
    3.3650   -4.7770    0.0000 C   0  0  0  0  0  0  0  0  0  0  0  0
    2.9000   -5.4590    0.0000 N   0  0  0  0  0  0  0  0  0  0  0  0
    3.2580   -6.2020    0.0000 C   0  0  0  0  0  0  0  0  0  0  0  0
    2.0770   -5.3970    0.0000 C   0  0  0  0  0  0  0  0  0  0  0  0
    1.7190   -4.6540    0.0000 C   0  0  0  0  0  0  0  0  0  0  0  0
    1.0010   -3.2290    0.0000 N   0  0  0  0  0  0  0  0  0  0  0  0
    0.4870   -2.5840    0.0000 C   0  0  0  0  0  0  0  0  0  0  0  0
   -0.3020   -2.8270    0.0000 C   0  0  0  0  0  0  0  0  0  0  0  0
  1  2  1  0  0  0  0
  2  3  1  0  0  0  0
  2 23  2  0  0  0  0
  3  4  2  0  0  0  0
  4  5  1  0  0  0  0
  5  6  1  0  0  0  0
  5 22  2  0  0  0  0
  6  7  1  0  0  0  0
  7  8  1  0  0  0  0
  7 12  2  0  0  0  0
  8  9  2  0  0  0  0
  9 10  1  0  0  0  0
 10 11  2  0  0  0  0
 11 12  1  0  0  0  0
 12 13  1  0  0  0  0
 13 14  1  0  0  0  0
 13 21  2  0  0  0  0
 14 15  1  0  0  0  0
 14 20  1  0  0  0  0
 15 16  1  0  0  0  0
 16 17  1  0  0  0  0
 17 18  1  0  0  0  0
 17 19  1  0  0  0  0
 19 20  1  0  0  0  0
 21 22  1  0  0  0  0
 22 23  1  0  0  0  0
M  END
> <MOL_ID>
22

>  <Name_of_compounds>
Fumarate

>  <Activity_Profiles>
1 1 1 1 1

> <INITIAL_ID>
123

> <SUM_activity>
5

$$$$
124
  MOE2007           2D

 28 31  0  0  0  0  0  0  0  0999 V2000
    9.3140   -4.7000    0.0000 C   0  0  0  0  0  0  0  0  0  0  0  0
    8.5990   -4.2870    0.0000 N   0  0  0  0  0  0  0  0  0  0  0  0
    7.8850   -4.7000    0.0000 C   0  0  0  0  0  0  0  0  0  0  0  0
    7.1700   -4.2870    0.0000 C   0  0  0  0  0  0  0  0  0  0  0  0
    7.1700   -3.4620    0.0000 N   0  0  0  0  0  0  0  0  0  0  0  0
    7.8850   -3.0500    0.0000 C   0  0  0  0  0  0  0  0  0  0  0  0
    8.5990   -3.4620    0.0000 C   0  0  0  0  0  0  0  0  0  0  0  0
    6.4560   -3.0500    0.0000 C   0  0  0  0  0  0  0  0  0  0  0  0
    6.4560   -2.2250    0.0000 C   0  0  0  0  0  0  0  0  0  0  0  0
    5.7410   -1.8120    0.0000 C   0  0  0  0  0  0  0  0  0  0  0  0
    5.7410   -0.9870    0.0000 N   0  0  0  0  0  0  0  0  0  0  0  0
    6.4560   -0.5750    0.0000 C   0  0  0  0  0  0  0  0  0  0  0  0
    7.1700   -0.9870    0.0000 C   0  0  0  0  0  0  0  0  0  0  0  0
    7.8850   -0.5750    0.0000 C   0  0  0  0  0  0  0  0  0  0  0  0
    7.8850    0.2500    0.0000 C   0  0  0  0  0  0  0  0  0  0  0  0
    7.1700    0.6630    0.0000 C   0  0  0  0  0  0  0  0  0  0  0  0
    6.4560    0.2500    0.0000 C   0  0  0  0  0  0  0  0  0  0  0  0
    5.7410    0.6630    0.0000 S   0  0  0  0  0  0  0  0  0  0  0  0
    5.0270    0.2500    0.0000 C   0  0  0  0  0  0  0  0  0  0  0  0
    5.0270   -0.5750    0.0000 C   0  0  0  0  0  0  0  0  0  0  0  0
    4.3120   -0.9870    0.0000 C   0  0  0  0  0  0  0  0  0  0  0  0
    3.5980   -0.5750    0.0000 C   0  0  0  0  0  0  0  0  0  0  0  0
    3.5980    0.2500    0.0000 C   0  0  0  0  0  0  0  0  0  0  0  0
    4.3120    0.6630    0.0000 C   0  0  0  0  0  0  0  0  0  0  0  0
    2.8830   -0.9870    0.0000 C   0  0  0  0  0  0  0  0  0  0  0  0
    2.4710   -0.2730    0.0000 F   0  0  0  0  0  0  0  0  0  0  0  0
    2.1690   -1.4000    0.0000 F   0  0  0  0  0  0  0  0  0  0  0  0
    3.2960   -1.7020    0.0000 F   0  0  0  0  0  0  0  0  0  0  0  0
  1  2  1  0  0  0  0
  2  3  1  0  0  0  0
  2  7  1  0  0  0  0
  3  4  1  0  0  0  0
  4  5  1  0  0  0  0
  5  6  1  0  0  0  0
  5  8  1  0  0  0  0
  6  7  1  0  0  0  0
  8  9  1  0  0  0  0
  9 10  1  0  0  0  0
 10 11  1  0  0  0  0
 11 12  1  0  0  0  0
 11 20  1  0  0  0  0
 12 13  1  0  0  0  0
 12 17  2  0  0  0  0
 13 14  2  0  0  0  0
 14 15  1  0  0  0  0
 15 16  2  0  0  0  0
 16 17  1  0  0  0  0
 17 18  1  0  0  0  0
 18 19  1  0  0  0  0
 19 20  1  0  0  0  0
 19 24  2  0  0  0  0
 20 21  2  0  0  0  0
 21 22  1  0  0  0  0
 22 23  2  0  0  0  0
 22 25  1  0  0  0  0
 23 24  1  0  0  0  0
 25 26  1  0  0  0  0
 25 27  1  0  0  0  0
 25 28  1  0  0  0  0
M  END
> <MOL_ID>
23

>  <Name_of_compounds>
Trifluoperazine

>  <Activity_Profiles>
1 1 1 1 1

> <INITIAL_ID>
124

> <SUM_activity>
5

$$$$
1302
  MOE2007           2D

 27 31  0  0  1  0  0  0  0  0999 V2000
   -1.9380    4.6730    0.0000 C   0  0  0  0  0  0  0  0  0  0  0  0
   -2.4790    4.0500    0.0000 C   0  0  0  0  0  0  0  0  0  0  0  0
   -3.1020    4.5910    0.0000 C   0  0  0  0  0  0  0  0  0  0  0  0
   -3.0200    3.4280    0.0000 C   0  0  0  0  0  0  0  0  0  0  0  0
   -1.8560    3.5090    0.0000 C   0  0  3  0  0  0  0  0  0  0  0  0
   -1.4560    2.7880    0.0000 C   0  0  0  0  0  0  0  0  0  0  0  0
   -0.6310    2.7740    0.0000 C   0  0  0  0  0  0  0  0  0  0  0  0
   -0.2060    3.4810    0.0000 N   0  0  0  0  0  0  0  0  0  0  0  0
    0.6180    3.4670    0.0000 C   0  0  0  0  0  0  0  0  0  0  0  0
    0.9310    4.1220    0.0000 C   0  0  3  0  0  0  0  0  0  0  0  0
    1.7150    3.8660    0.0000 C   0  0  0  0  0  0  0  0  0  0  0  0
    1.7630    3.0420    0.0000 C   0  0  0  0  0  0  0  0  0  0  0  0
    2.5000    2.6720    0.0000 C   0  0  0  0  0  0  0  0  0  0  0  0
    3.1890    3.1240    0.0000 C   0  0  0  0  0  0  0  0  0  0  0  0
    3.1420    3.9480    0.0000 C   0  0  0  0  0  0  0  0  0  0  0  0
    2.4050    4.3190    0.0000 C   0  0  0  0  0  0  0  0  0  0  0  0
    2.4800    5.1400    0.0000 C   0  0  0  0  0  0  0  0  0  0  0  0
    1.8850    5.7120    0.0000 C   0  0  0  0  0  0  0  0  0  0  0  0
    1.0680    5.6030    0.0000 C   0  0  0  0  0  0  0  0  0  0  0  0
    0.6430    4.8960    0.0000 C   0  0  0  0  0  0  0  0  0  0  0  0
   -0.1820    4.9100    0.0000 C   0  0  0  0  0  0  0  0  0  0  0  0
   -0.5820    5.6310    0.0000 C   0  0  0  0  0  0  0  0  0  0  0  0
   -0.1570    6.3380    0.0000 C   0  0  0  0  0  0  0  0  0  0  0  0
    0.6680    6.3240    0.0000 C   0  0  0  0  0  0  0  0  0  0  0  0
   -0.6070    4.2020    0.0000 C   0  0  3  0  0  0  0  0  0  0  0  0
   -1.4320    4.2170    0.0000 C   0  0  0  0  0  0  0  0  0  0  0  0
   -2.4970    2.9900    0.0000 O   0  0  0  0  0  0  0  0  0  0  0  0
  1  2  1  0  0  0  0
  2  3  1  0  0  0  0
  2  4  1  0  0  0  0
  2  5  1  0  0  0  0
  5  6  1  0  0  0  0
  5 26  1  0  0  0  0
  5 27  1  0  0  0  0
  6  7  1  0  0  0  0
  7  8  1  0  0  0  0
  8  9  1  0  0  0  0
  8 25  1  0  0  0  0
  9 10  1  0  0  0  0
 10 11  1  0  0  0  0
 10 20  1  0  0  0  0
 11 12  1  0  0  0  0
 11 16  2  0  0  0  0
 12 13  2  0  0  0  0
 13 14  1  0  0  0  0
 14 15  2  0  0  0  0
 15 16  1  0  0  0  0
 16 17  1  0  0  0  0
 17 18  1  0  0  0  0
 18 19  1  0  0  0  0
 19 20  1  0  0  0  0
 19 24  2  0  0  0  0
 20 21  2  0  0  0  0
 21 22  1  0  0  0  0
 21 25  1  0  0  0  0
 22 23  2  0  0  0  0
 23 24  1  0  0  0  0
 25 26  1  0  0  0  0
M  END
> <MOL_ID>
54

>  <Name_of_compounds>
Butaclamol

>  <Activity_Profiles>
1 1 1 1 1

> <INITIAL_ID>
1302

> <SUM_activity>
5

$$$$
1303
  MOE2007           2D

 21 23  0  0  0  0  0  0  0  0999 V2000
    8.1310   -0.6480    0.0000 C   0  0  0  0  0  0  0  0  0  0  0  0
    7.4170   -1.0610    0.0000 N   0  0  0  0  0  0  0  0  0  0  0  0
    7.4170   -1.8860    0.0000 C   0  0  0  0  0  0  0  0  0  0  0  0
    6.7020   -0.6480    0.0000 C   0  0  0  0  0  0  0  0  0  0  0  0
    5.9880   -1.0610    0.0000 C   0  0  0  0  0  0  0  0  0  0  0  0
    5.2740   -0.6480    0.0000 C   0  0  0  0  0  0  0  0  0  0  0  0
    5.2740    0.1770    0.0000 C   0  0  0  0  0  0  0  0  0  0  0  0
    5.9880    0.5890    0.0000 C   0  0  0  0  0  0  0  0  0  0  0  0
    6.7020    0.1770    0.0000 C   0  0  0  0  0  0  0  0  0  0  0  0
    7.4170    0.5890    0.0000 C   0  0  0  0  0  0  0  0  0  0  0  0
    7.4170    1.4140    0.0000 C   0  0  0  0  0  0  0  0  0  0  0  0
    6.7020    1.8270    0.0000 C   0  0  0  0  0  0  0  0  0  0  0  0
    5.9880    1.4140    0.0000 C   0  0  0  0  0  0  0  0  0  0  0  0
    5.2740    1.8270    0.0000 S   0  0  0  0  0  0  0  0  0  0  0  0
    4.5590    1.4140    0.0000 C   0  0  0  0  0  0  0  0  0  0  0  0
    4.5590    0.5890    0.0000 C   0  0  0  0  0  0  0  0  0  0  0  0
    3.8440    0.1770    0.0000 C   0  0  0  0  0  0  0  0  0  0  0  0
    3.1300    0.5890    0.0000 C   0  0  0  0  0  0  0  0  0  0  0  0
    3.1300    1.4140    0.0000 C   0  0  0  0  0  0  0  0  0  0  0  0
    3.8440    1.8270    0.0000 C   0  0  0  0  0  0  0  0  0  0  0  0
    2.4160    0.1770    0.0000 Cl  0  0  0  0  0  0  0  0  0  0  0  0
  1  2  1  0  0  0  0
  2  3  1  0  0  0  0
  2  4  1  0  0  0  0
  4  5  1  0  0  0  0
  5  6  1  0  0  0  0
  6  7  2  0  0  0  0
  7  8  1  0  0  0  0
  7 16  1  0  0  0  0
  8  9  1  0  0  0  0
  8 13  2  0  0  0  0
  9 10  2  0  0  0  0
 10 11  1  0  0  0  0
 11 12  2  0  0  0  0
 12 13  1  0  0  0  0
 13 14  1  0  0  0  0
 14 15  1  0  0  0  0
 15 16  1  0  0  0  0
 15 20  2  0  0  0  0
 16 17  2  0  0  0  0
 17 18  1  0  0  0  0
 18 19  2  0  0  0  0
 18 21  1  0  0  0  0
 19 20  1  0  0  0  0
M  END
> <MOL_ID>
55

>  <Name_of_compounds>
chlorprothixene

>  <Activity_Profiles>
1 1 1 1 1

> <INITIAL_ID>
1303

> <SUM_activity>
5

$$$$
631
  MOE2007           2D

 22 25  0  0  1  0  0  0  0  0999 V2000
    4.2760   -1.3150    0.0000 C   0  0  0  0  0  0  0  0  0  0  0  0
    4.2760   -0.4900    0.0000 C   0  0  0  0  0  0  0  0  0  0  0  0
    3.5610   -0.0780    0.0000 C   0  0  0  0  0  0  0  0  0  0  0  0
    3.5610    0.7480    0.0000 N   0  0  0  0  0  0  0  0  0  0  0  0
    4.2760    1.1600    0.0000 C   0  0  0  0  0  0  0  0  0  0  0  0
    4.2760    1.9850    0.0000 C   0  0  3  0  0  0  0  0  0  0  0  0
    3.5610    2.3980    0.0000 C   0  0  0  0  0  0  0  0  0  0  0  0
    2.8470    1.9850    0.0000 C   0  0  3  0  0  0  0  0  0  0  0  0
    2.8470    1.1600    0.0000 C   0  0  3  0  0  0  0  0  0  0  0  0
    2.1320    0.7480    0.0000 C   0  0  0  0  0  0  0  0  0  0  0  0
    1.4180    1.1600    0.0000 C   0  0  0  0  0  0  0  0  0  0  0  0
    0.6330    0.9050    0.0000 C   0  0  0  0  0  0  0  0  0  0  0  0
    0.1480    1.5720    0.0000 N   0  0  0  0  0  0  0  0  0  0  0  0
    0.6330    2.2400    0.0000 C   0  0  0  0  0  0  0  0  0  0  0  0
    0.4620    3.0470    0.0000 C   0  0  0  0  0  0  0  0  0  0  0  0
    1.0750    3.5990    0.0000 C   0  0  0  0  0  0  0  0  0  0  0  0
    1.8590    3.3440    0.0000 C   0  0  0  0  0  0  0  0  0  0  0  0
    2.1320    2.3980    0.0000 C   0  0  0  0  0  0  0  0  0  0  0  0
    1.4180    1.9850    0.0000 C   0  0  0  0  0  0  0  0  0  0  0  0
    4.9900    2.3980    0.0000 C   0  0  0  0  0  0  0  0  0  0  0  0
    4.9900    3.2220    0.0000 S   0  0  0  0  0  0  0  0  0  0  0  0
    5.7040    3.6350    0.0000 C   0  0  0  0  0  0  0  0  0  0  0  0
  1  2  1  0  0  0  0
  2  3  1  0  0  0  0
  3  4  1  0  0  0  0
  4  5  1  0  0  0  0
  4  9  1  0  0  0  0
  5  6  1  0  0  0  0
  6  7  1  0  0  0  0
  6 20  1  0  0  0  0
  7  8  1  0  0  0  0
  8  9  1  0  0  0  0
  8 18  1  0  0  0  0
  9 10  1  0  0  0  0
 10 11  1  0  0  0  0
 11 12  2  0  0  0  0
 11 19  1  0  0  0  0
 12 13  1  0  0  0  0
 13 14  1  0  0  0  0
 14 15  1  0  0  0  0
 14 19  2  0  0  0  0
 15 16  2  0  0  0  0
 16 17  1  0  0  0  0
 17 18  2  0  0  0  0
 18 19  1  0  0  0  0
 20 21  1  0  0  0  0
 21 22  1  0  0  0  0
M  END
> <MOL_ID>
44

>  <Name_of_compounds>
Pergolide

>  <Activity_Profiles>
1 1 1 1 1

> <INITIAL_ID>
631

> <SUM_activity>
5

$$$$
1301
  MOE2007           2D

 30 33  0  0  0  0  0  0  0  0999 V2000
    9.2170   -1.0310    0.0000 C   0  0  0  0  0  0  0  0  0  0  0  0
    9.9310   -1.4440    0.0000 C   0  0  0  0  0  0  0  0  0  0  0  0
    9.9310   -2.2690    0.0000 N   0  0  0  0  0  0  0  0  0  0  0  0
    9.2170   -2.6810    0.0000 C   0  0  0  0  0  0  0  0  0  0  0  0
    8.5020   -2.2690    0.0000 C   0  0  0  0  0  0  0  0  0  0  0  0
    8.5020   -1.4440    0.0000 N   0  0  0  0  0  0  0  0  0  0  0  0
    7.7880   -1.0310    0.0000 C   0  0  0  0  0  0  0  0  0  0  0  0
    7.0730   -1.4440    0.0000 C   0  0  0  0  0  0  0  0  0  0  0  0
    6.3590   -1.0310    0.0000 C   0  0  0  0  0  0  0  0  0  0  0  0
    6.3590   -0.2060    0.0000 C   0  0  0  0  0  0  0  0  0  0  0  0
    7.0730    0.2060    0.0000 C   0  0  0  0  0  0  0  0  0  0  0  0
    7.7880   -0.2060    0.0000 C   0  0  0  0  0  0  0  0  0  0  0  0
    8.5020    0.2060    0.0000 C   0  0  0  0  0  0  0  0  0  0  0  0
    8.5020    1.0310    0.0000 C   0  0  0  0  0  0  0  0  0  0  0  0
    7.7880    1.4440    0.0000 C   0  0  0  0  0  0  0  0  0  0  0  0
    7.0730    1.0310    0.0000 C   0  0  0  0  0  0  0  0  0  0  0  0
    6.3590    1.4440    0.0000 S   0  0  0  0  0  0  0  0  0  0  0  0
    5.6440    1.0310    0.0000 C   0  0  0  0  0  0  0  0  0  0  0  0
    5.6440    0.2060    0.0000 C   0  0  0  0  0  0  0  0  0  0  0  0
    4.9300   -0.2060    0.0000 C   0  0  0  0  0  0  0  0  0  0  0  0
    4.2150    0.2060    0.0000 C   0  0  0  0  0  0  0  0  0  0  0  0
    4.2150    1.0310    0.0000 C   0  0  0  0  0  0  0  0  0  0  0  0
    4.9300    1.4440    0.0000 C   0  0  0  0  0  0  0  0  0  0  0  0
    3.5010   -0.2060    0.0000 C   0  0  0  0  0  0  0  0  0  0  0  0
    3.0880    0.5080    0.0000 F   0  0  0  0  0  0  0  0  0  0  0  0
    2.7860   -0.6190    0.0000 F   0  0  0  0  0  0  0  0  0  0  0  0
    3.9130   -0.9210    0.0000 F   0  0  0  0  0  0  0  0  0  0  0  0
   10.6460   -2.6810    0.0000 C   0  0  0  0  0  0  0  0  0  0  0  0
   11.3600   -2.2690    0.0000 C   0  0  0  0  0  0  0  0  0  0  0  0
   12.0750   -2.6810    0.0000 O   0  0  0  0  0  0  0  0  0  0  0  0
  1  2  1  0  0  0  0
  1  6  1  0  0  0  0
  2  3  1  0  0  0  0
  3  4  1  0  0  0  0
  3 28  1  0  0  0  0
  4  5  1  0  0  0  0
  5  6  1  0  0  0  0
  6  7  1  0  0  0  0
  7  8  1  0  0  0  0
  8  9  1  0  0  0  0
  9 10  2  0  0  0  0
 10 11  1  0  0  0  0
 10 19  1  0  0  0  0
 11 12  1  0  0  0  0
 11 16  2  0  0  0  0
 12 13  2  0  0  0  0
 13 14  1  0  0  0  0
 14 15  2  0  0  0  0
 15 16  1  0  0  0  0
 16 17  1  0  0  0  0
 17 18  1  0  0  0  0
 18 19  1  0  0  0  0
 18 23  2  0  0  0  0
 19 20  2  0  0  0  0
 20 21  1  0  0  0  0
 21 22  2  0  0  0  0
 21 24  1  0  0  0  0
 22 23  1  0  0  0  0
 24 25  1  0  0  0  0
 24 26  1  0  0  0  0
 24 27  1  0  0  0  0
 28 29  1  0  0  0  0
 29 30  1  0  0  0  0
M  END
> <MOL_ID>
53

>  <Name_of_compounds>
flupenthixol

>  <Activity_Profiles>
1 1 1 1 1

> <INITIAL_ID>
1301

> <SUM_activity>
5

$$$$
