
  Marvin  08130811232D          

 14 14  0  0  1  0            999 V2000
    0.9696    2.3277    0.0000 C   0  0  0  0  0  0  0  0  0  0  0  0
    0.9696    1.5027    0.0000 C   0  0  0  0  0  0  0  0  0  0  0  0
    0.2552    1.0902    0.0000 C   0  0  0  0  0  0  0  0  0  0  0  0
   -0.4593    1.5027    0.0000 C   0  0  0  0  0  0  0  0  0  0  0  0
   -0.4593    2.3277    0.0000 C   0  0  0  0  0  0  0  0  0  0  0  0
    0.2552    2.7402    0.0000 C   0  0  0  0  0  0  0  0  0  0  0  0
    0.2552    3.5652    0.0000 C   0  0  0  0  0  0  0  0  0  0  0  0
    0.9696    3.9777    0.0000 C   0  0  1  0  0  0  0  0  0  0  0  0
    0.9696    4.8027    0.0000 C   0  0  0  0  0  0  0  0  0  0  0  0
    0.2552    5.2152    0.0000 O   0  0  0  0  0  0  0  0  0  0  0  0
    1.6841    5.2152    0.0000 O   0  0  0  0  0  0  0  0  0  0  0  0
    1.6841    3.5652    0.0000 N   0  0  0  0  0  0  0  0  0  0  0  0
   -1.1738    1.0902    0.0000 O   0  0  0  0  0  0  0  0  0  0  0  0
    0.2552    0.2652    0.0000 O   0  0  0  0  0  0  0  0  0  0  0  0
  1  2  4  0  0  0  0
  2  3  4  0  0  0  0
  3  4  4  0  0  0  0
  4  5  4  0  0  0  0
  5  6  4  0  0  0  0
  1  6  4  0  0  0  0
  6  7  1  0  0  0  0
  7  8  1  0  0  0  0
  8  9  1  0  0  0  0
  9 10  2  0  0  0  0
  9 11  1  0  0  0  0
  8 12  1  1  0  0  0
  4 13  1  0  0  0  0
  3 14  1  0  0  0  0
M  END
>  <MOL_ID>
71
>  <Name_of_compounds>
L-DOPA
>  <Activity_Profiles>
0 0 0 0 0
>  <INITIAL_ID>
1325

>  <SUM_activity>
0

$$$$

  Marvin  08130811232D          

 28 31  0  0  0  0            999 V2000
    4.6672    3.3495    0.0000 C   0  0  0  0  0  0  0  0  0  0  0  0
    4.3074    2.6071    0.0000 C   0  0  0  0  0  0  0  0  0  0  0  0
    3.7755    3.2378    0.0000 C   0  0  0  0  0  0  0  0  0  0  0  0
    2.9634    3.0926    0.0000 C   0  0  0  0  0  0  0  0  0  0  0  0
    2.6831    2.3167    0.0000 C   0  0  0  0  0  0  0  0  0  0  0  0
    3.2149    1.6859    0.0000 C   0  0  0  0  0  0  0  0  0  0  0  0
    4.0271    1.8312    0.0000 C   0  0  0  0  0  0  0  0  0  0  0  0
    4.6784    1.3248    0.0000 C   0  0  0  0  0  0  0  0  0  0  0  0
    5.3612    1.7878    0.0000 C   0  0  0  0  0  0  0  0  0  0  0  0
    5.1319    2.5803    0.0000 C   0  0  0  0  0  0  0  0  0  0  0  0
    5.8928    2.8992    0.0000 C   0  0  0  0  0  0  0  0  0  0  0  0
    6.5494    2.3996    0.0000 O   0  0  0  0  0  0  0  0  0  0  0  0
    5.9971    3.7175    0.0000 C   0  0  0  0  0  0  0  0  0  0  0  0
    6.7580    4.0364    0.0000 O   0  0  0  0  0  0  0  0  0  0  0  0
    5.2533    3.3963    0.0000 O   0  0  0  0  0  0  0  0  0  0  0  0
    6.1372    1.5075    0.0000 O   0  0  0  0  0  0  0  0  0  0  0  0
    2.9346    0.9100    0.0000 C   0  0  0  0  0  0  0  0  0  0  0  0
    2.1225    0.7648    0.0000 C   0  0  0  0  0  0  0  0  0  0  0  0
    1.5907    1.3955    0.0000 C   0  0  0  0  0  0  0  0  0  0  0  0
    0.7786    1.2503    0.0000 C   0  0  0  0  0  0  0  0  0  0  0  0
    0.2468    1.8810    0.0000 C   0  0  0  0  0  0  0  0  0  0  0  0
   -0.5653    1.7358    0.0000 O   0  0  0  0  0  0  0  0  0  0  0  0
    0.5271    2.6569    0.0000 C   0  0  0  0  0  0  0  0  0  0  0  0
    1.3392    2.8021    0.0000 C   0  0  0  0  0  0  0  0  0  0  0  0
    1.8710    2.1714    0.0000 C   0  0  0  0  0  0  0  0  0  0  0  0
    2.1513    2.9474    0.0000 C   0  0  0  0  0  0  0  0  0  0  0  0
    3.4841    2.1190    0.0000 F   0  0  0  0  0  0  0  0  0  0  0  0
    2.4316    3.7233    0.0000 O   0  0  0  0  0  0  0  0  0  0  0  0
  1  2  1  0  0  0  0
  2  3  1  0  0  0  0
  3  4  1  0  0  0  0
  4  5  1  0  0  0  0
  5  6  1  0  0  0  0
  6  7  1  0  0  0  0
  2  7  1  0  0  0  0
  7  8  1  0  0  0  0
  8  9  1  0  0  0  0
  9 10  1  0  0  0  0
  2 10  1  0  0  0  0
 10 11  1  0  0  0  0
 11 12  2  0  0  0  0
 11 13  1  0  0  0  0
 13 14  1  0  0  0  0
 10 15  1  0  0  0  0
  9 16  1  0  0  0  0
  6 17  1  0  0  0  0
 17 18  1  0  0  0  0
 18 19  1  0  0  0  0
 19 20  2  0  0  0  0
 20 21  1  0  0  0  0
 21 22  2  0  0  0  0
 21 23  1  0  0  0  0
 23 24  2  0  0  0  0
 24 25  1  0  0  0  0
 19 25  1  0  0  0  0
  5 25  1  0  0  0  0
 25 26  1  0  0  0  0
  5 27  1  0  0  0  0
  4 28  1  0  0  0  0
M  END
>  <MOL_ID>
70
>  <Name_of_compounds>
Triamcinolone
>  <Activity_Profiles>
0 0 0 0 0
>  <INITIAL_ID>
1324

>  <SUM_activity>
0

$$$$

  Marvin  08130811232D          

 17 18  0  0  0  0            999 V2000
    0.5425   -0.5149    0.0000 C   0  0  0  0  0  0  0  0  0  0  0  0
    1.3549   -0.3717    0.0000 C   0  0  0  0  0  0  0  0  0  0  0  0
    1.8852   -1.0037    0.0000 C   0  0  0  0  0  0  0  0  0  0  0  0
    2.5997   -1.4162    0.0000 C   0  0  0  0  0  0  0  0  0  0  0  0
    3.3142   -1.0037    0.0000 O   0  0  0  0  0  0  0  0  0  0  0  0
    2.5997   -2.2412    0.0000 N   0  0  0  0  0  0  0  0  0  0  0  0
    1.8852   -2.6537    0.0000 C   0  0  0  0  0  0  0  0  0  0  0  0
    1.8852   -3.4787    0.0000 O   0  0  0  0  0  0  0  0  0  0  0  0
    1.1708   -2.2412    0.0000 N   0  0  0  0  0  0  0  0  0  0  0  0
    1.1708   -1.4162    0.0000 C   0  0  0  0  0  0  0  0  0  0  0  0
    0.4563   -1.0037    0.0000 O   0  0  0  0  0  0  0  0  0  0  0  0
    2.4155   -0.3717    0.0000 C   0  0  0  0  0  0  0  0  0  0  0  0
    2.1334    0.4036    0.0000 C   0  0  0  0  0  0  0  0  0  0  0  0
    2.6637    1.0355    0.0000 C   0  0  0  0  0  0  0  0  0  0  0  0
    3.4761    0.8923    0.0000 C   0  0  0  0  0  0  0  0  0  0  0  0
    3.7583    0.1170    0.0000 C   0  0  0  0  0  0  0  0  0  0  0  0
    3.2280   -0.5149    0.0000 C   0  0  0  0  0  0  0  0  0  0  0  0
  1  2  1  0  0  0  0
  2  3  1  0  0  0  0
  3  4  1  0  0  0  0
  4  5  2  0  0  0  0
  4  6  1  0  0  0  0
  6  7  1  0  0  0  0
  7  8  2  0  0  0  0
  7  9  1  0  0  0  0
  9 10  1  0  0  0  0
  3 10  1  0  0  0  0
 10 11  2  0  0  0  0
  3 12  1  0  0  0  0
 12 13  4  0  0  0  0
 13 14  4  0  0  0  0
 14 15  4  0  0  0  0
 15 16  4  0  0  0  0
 16 17  4  0  0  0  0
 12 17  4  0  0  0  0
M  END
>  <MOL_ID>
75
>  <Name_of_compounds>
Phenobarbitol
>  <Activity_Profiles>
0 0 0 0 0
>  <INITIAL_ID>
1330

>  <SUM_activity>
0

$$$$

  Marvin  08130811232D          

 51 53  0  0  0  0            999 V2000
   -6.8670  -20.1557    0.0000 C   0  0  0  0  0  0  0  0  0  0  0  0
   -6.1804  -20.6131    0.0000 C   0  0  0  0  0  0  0  0  0  0  0  0
   -6.2332  -21.4364    0.0000 O   0  0  0  0  0  0  0  0  0  0  0  0
   -5.4410  -20.2472    0.0000 S   0  0  0  0  0  0  0  0  0  0  0  0
   -4.7544  -20.7046    0.0000 C   0  0  0  0  0  0  0  0  0  0  0  0
   -4.0150  -20.3386    0.0000 C   0  0  0  0  0  0  0  0  0  0  0  0
   -3.3284  -20.7960    0.0000 N   0  0  0  0  0  0  0  0  0  0  0  0
   -2.5890  -20.4301    0.0000 C   0  0  0  0  0  0  0  0  0  0  0  0
   -2.5361  -19.6068    0.0000 O   0  0  0  0  0  0  0  0  0  0  0  0
   -1.9024  -20.8875    0.0000 C   0  0  0  0  0  0  0  0  0  0  0  0
   -1.1629  -20.5216    0.0000 C   0  0  0  0  0  0  0  0  0  0  0  0
   -0.4763  -20.9790    0.0000 N   0  0  0  0  0  0  0  0  0  0  0  0
    0.2631  -20.6131    0.0000 C   0  0  0  0  0  0  0  0  0  0  0  0
    0.3159  -19.7898    0.0000 O   0  0  0  0  0  0  0  0  0  0  0  0
    0.9497  -21.0705    0.0000 C   0  0  0  0  0  0  0  0  0  0  0  0
    1.6891  -20.7046    0.0000 C   0  0  0  0  0  0  0  0  0  0  0  0
    1.3232  -19.9651    0.0000 C   0  0  0  0  0  0  0  0  0  0  0  0
    2.0550  -21.4440    0.0000 C   0  0  0  0  0  0  0  0  0  0  0  0
    2.4285  -20.3386    0.0000 C   0  0  0  0  0  0  0  0  0  0  0  0
    3.1151  -20.7960    0.0000 O   0  0  0  0  0  0  0  0  0  0  0  0
    3.8545  -20.4301    0.0000 P   0  0  0  0  0  0  0  0  0  0  0  0
    3.4886  -19.6907    0.0000 O   0  0  0  0  0  0  0  0  0  0  0  0
    4.2204  -21.1695    0.0000 O   0  0  0  0  0  0  0  0  0  0  0  0
    4.5939  -20.0642    0.0000 O   0  0  0  0  0  0  0  0  0  0  0  0
    5.2805  -20.5216    0.0000 P   0  0  0  0  0  0  0  0  0  0  0  0
    4.8231  -21.2082    0.0000 O   0  0  0  0  0  0  0  0  0  0  0  0
    5.7379  -19.8350    0.0000 O   0  0  0  0  0  0  0  0  0  0  0  0
    5.9671  -20.9790    0.0000 O   0  0  0  0  0  0  0  0  0  0  0  0
    6.7065  -20.6131    0.0000 C   0  0  0  0  0  0  0  0  0  0  0  0
    7.3931  -21.0705    0.0000 C   0  0  0  0  0  0  0  0  0  0  0  0
    8.1667  -20.7839    0.0000 C   0  0  0  0  0  0  0  0  0  0  0  0
    8.6784  -21.4310    0.0000 C   0  0  0  0  0  0  0  0  0  0  0  0
    8.2210  -22.1176    0.0000 C   0  0  0  0  0  0  0  0  0  0  0  0
    7.4267  -21.8948    0.0000 O   0  0  0  0  0  0  0  0  0  0  0  0
    8.5076  -22.8912    0.0000 N   0  0  0  0  0  0  0  0  0  0  0  0
    8.0502  -23.5778    0.0000 C   0  0  0  0  0  0  0  0  0  0  0  0
    8.5619  -24.2250    0.0000 N   0  0  0  0  0  0  0  0  0  0  0  0
    9.3355  -23.9384    0.0000 C   0  0  0  0  0  0  0  0  0  0  0  0
    9.3019  -23.1141    0.0000 C   0  0  0  0  0  0  0  0  0  0  0  0
    9.9991  -22.6729    0.0000 N   0  0  0  0  0  0  0  0  0  0  0  0
   10.7297  -23.0560    0.0000 C   0  0  0  0  0  0  0  0  0  0  0  0
   10.7632  -23.8803    0.0000 N   0  0  0  0  0  0  0  0  0  0  0  0
   10.0661  -24.3215    0.0000 C   0  0  0  0  0  0  0  0  0  0  0  0
   10.0997  -25.1458    0.0000 N   0  0  0  0  0  0  0  0  0  0  0  0
    9.5027  -21.3975    0.0000 O   0  0  0  0  0  0  0  0  0  0  0  0
    8.3896  -19.9895    0.0000 O   0  0  0  0  0  0  0  0  0  0  0  0
    9.1889  -19.7853    0.0000 P   0  0  0  0  0  0  0  0  0  0  0  0
    9.3931  -20.5847    0.0000 O   0  0  0  0  0  0  0  0  0  0  0  0
    8.9847  -18.9860    0.0000 O   0  0  0  0  0  0  0  0  0  0  0  0
    9.9882  -19.5811    0.0000 O   0  0  0  0  0  0  0  0  0  0  0  0
    0.8968  -21.8938    0.0000 O   0  0  0  0  0  0  0  0  0  0  0  0
  1  2  1  0  0  0  0
  2  3  2  0  0  0  0
  2  4  1  0  0  0  0
  4  5  1  0  0  0  0
  5  6  1  0  0  0  0
  6  7  1  0  0  0  0
  7  8  1  0  0  0  0
  8  9  2  0  0  0  0
  8 10  1  0  0  0  0
 10 11  1  0  0  0  0
 11 12  1  0  0  0  0
 12 13  1  0  0  0  0
 13 14  2  0  0  0  0
 13 15  1  0  0  0  0
 15 16  1  0  0  0  0
 16 17  1  0  0  0  0
 16 18  1  0  0  0  0
 16 19  1  0  0  0  0
 19 20  1  0  0  0  0
 20 21  1  0  0  0  0
 21 22  2  0  0  0  0
 21 23  1  0  0  0  0
 21 24  1  0  0  0  0
 24 25  1  0  0  0  0
 25 26  2  0  0  0  0
 25 27  1  0  0  0  0
 25 28  1  0  0  0  0
 28 29  1  0  0  0  0
 29 30  1  0  0  0  0
 30 31  1  0  0  0  0
 31 32  1  0  0  0  0
 32 33  1  0  0  0  0
 33 34  1  0  0  0  0
 30 34  1  0  0  0  0
 33 35  1  0  0  0  0
 35 36  4  0  0  0  0
 36 37  4  0  0  0  0
 37 38  4  0  0  0  0
 38 39  4  0  0  0  0
 35 39  4  0  0  0  0
 39 40  4  0  0  0  0
 40 41  4  0  0  0  0
 41 42  4  0  0  0  0
 42 43  4  0  0  0  0
 38 43  4  0  0  0  0
 43 44  1  0  0  0  0
 32 45  1  0  0  0  0
 31 46  1  0  0  0  0
 46 47  1  0  0  0  0
 47 48  2  0  0  0  0
 47 49  1  0  0  0  0
 47 50  1  0  0  0  0
 15 51  1  0  0  0  0
M  END
>  <MOL_ID>
67
>  <Name_of_compounds>
Acetyl CoA
>  <Activity_Profiles>
0 0 0 0 0
>  <INITIAL_ID>
1319

>  <SUM_activity>
0

$$$$

  Marvin  08130811232D          

 14 13  0  0  1  0            999 V2000
    8.0330   -0.4258    0.0000 C   0  0  0  0  0  0  0  0  0  0  0  0
    8.0330    0.3992    0.0000 C   0  0  0  0  0  0  0  0  0  0  0  0
    8.7475    0.8117    0.0000 O   0  0  0  0  0  0  0  0  0  0  0  0
    7.3185    0.8117    0.0000 O   0  0  0  0  0  0  0  0  0  0  0  0
    7.3185    1.6367    0.0000 C   0  0  2  0  0  0  0  0  0  0  0  0
    6.6041    2.0492    0.0000 C   0  0  0  0  0  0  0  0  0  0  0  0
    5.8896    1.6367    0.0000 C   0  0  0  0  0  0  0  0  0  0  0  0
    5.1751    2.0492    0.0000 O   0  0  0  0  0  0  0  0  0  0  0  0
    5.8896    0.8117    0.0000 O   0  0  0  0  0  0  0  0  0  0  0  0
    8.0330    2.0492    0.0000 C   0  0  0  0  0  0  0  0  0  0  0  0
    8.7475    1.6367    0.0000 N   0  3  0  0  0  0  0  0  0  0  0  0
    8.3350    0.9222    0.0000 C   0  0  0  0  0  0  0  0  0  0  0  0
    9.1600    2.3512    0.0000 C   0  0  0  0  0  0  0  0  0  0  0  0
    9.4620    1.2242    0.0000 C   0  0  0  0  0  0  0  0  0  0  0  0
  1  2  1  0  0  0  0
  2  3  2  0  0  0  0
  2  4  1  0  0  0  0
  5  4  1  6  0  0  0
  5  6  1  0  0  0  0
  6  7  1  0  0  0  0
  7  8  2  0  0  0  0
  7  9  1  0  0  0  0
  5 10  1  0  0  0  0
 10 11  1  0  0  0  0
 11 12  1  0  0  0  0
 11 13  1  0  0  0  0
 11 14  1  0  0  0  0
M  CHG  1  11   1
M  END
>  <MOL_ID>
66
>  <Name_of_compounds>
Acetyl-L-Carnitine
>  <Activity_Profiles>
0 0 0 0 0
>  <INITIAL_ID>
1318

>  <SUM_activity>
0

$$$$

  Marvin  08130811232D          

 11 10  0  0  1  0            999 V2000
    4.5240   -2.6529    0.0000 C   0  0  0  0  0  0  0  0  0  0  0  0
    4.9365   -1.9385    0.0000 N   0  3  0  0  0  0  0  0  0  0  0  0
    4.2221   -1.5260    0.0000 C   0  0  0  0  0  0  0  0  0  0  0  0
    5.3490   -1.2240    0.0000 C   0  0  0  0  0  0  0  0  0  0  0  0
    5.6510   -2.3510    0.0000 C   0  0  0  0  0  0  0  0  0  0  0  0
    6.3655   -1.9385    0.0000 C   0  0  1  0  0  0  0  0  0  0  0  0
    7.0799   -2.3510    0.0000 C   0  0  0  0  0  0  0  0  0  0  0  0
    7.7944   -1.9385    0.0000 C   0  0  0  0  0  0  0  0  0  0  0  0
    7.7944   -1.1135    0.0000 O   0  0  0  0  0  0  0  0  0  0  0  0
    8.5089   -2.3510    0.0000 O   0  0  0  0  0  0  0  0  0  0  0  0
    6.3655   -1.1135    0.0000 O   0  0  0  0  0  0  0  0  0  0  0  0
  1  2  1  0  0  0  0
  2  3  1  0  0  0  0
  2  4  1  0  0  0  0
  2  5  1  0  0  0  0
  5  6  1  0  0  0  0
  6  7  1  0  0  0  0
  7  8  1  0  0  0  0
  8  9  2  0  0  0  0
  8 10  1  0  0  0  0
  6 11  1  6  0  0  0
M  CHG  1   2   1
M  END
>  <MOL_ID>
69
>  <Name_of_compounds>
L-Carnitine
>  <Activity_Profiles>
0 0 0 0 0
>  <INITIAL_ID>
1323

>  <SUM_activity>
0

$$$$

  Marvin  08130811232D          

 14 15  0  0  0  0            999 V2000
    5.2337    2.7107    0.0000 C   0  0  0  0  0  0  0  0  0  0  0  0
    5.9482    2.2982    0.0000 O   0  0  0  0  0  0  0  0  0  0  0  0
    5.9482    1.4732    0.0000 C   0  0  0  0  0  0  0  0  0  0  0  0
    6.6626    1.0607    0.0000 C   0  0  0  0  0  0  0  0  0  0  0  0
    6.6626    0.2357    0.0000 C   0  0  0  0  0  0  0  0  0  0  0  0
    5.9482   -0.1768    0.0000 C   0  0  0  0  0  0  0  0  0  0  0  0
    5.2337    0.2357    0.0000 C   0  0  0  0  0  0  0  0  0  0  0  0
    5.2337    1.0607    0.0000 C   0  0  0  0  0  0  0  0  0  0  0  0
    4.4491    1.3157    0.0000 O   0  0  0  0  0  0  0  0  0  0  0  0
    3.9642    0.6482    0.0000 C   0  0  0  0  0  0  0  0  0  0  0  0
    4.4491   -0.0192    0.0000 O   0  0  0  0  0  0  0  0  0  0  0  0
    7.3771   -0.1768    0.0000 C   0  0  0  0  0  0  0  0  0  0  0  0
    8.0916    0.2357    0.0000 C   0  0  0  0  0  0  0  0  0  0  0  0
    8.8061   -0.1768    0.0000 C   0  0  0  0  0  0  0  0  0  0  0  0
  1  2  1  0  0  0  0
  2  3  1  0  0  0  0
  3  4  4  0  0  0  0
  4  5  4  0  0  0  0
  5  6  4  0  0  0  0
  6  7  4  0  0  0  0
  7  8  4  0  0  0  0
  3  8  4  0  0  0  0
  8  9  1  0  0  0  0
  9 10  1  0  0  0  0
 10 11  1  0  0  0  0
  7 11  1  0  0  0  0
  5 12  1  0  0  0  0
 12 13  1  0  0  0  0
 13 14  2  0  0  0  0
M  END
>  <MOL_ID>
80
>  <Name_of_compounds>
Myristicin
>  <Activity_Profiles>
0 0 0 0 0
>  <INITIAL_ID>
1335

>  <SUM_activity>
0

$$$$

  Marvin  08130811232D          

 21 25  0  0  0  0            999 V2000
    8.6956    1.8414    0.0000 C   0  0  0  0  0  0  0  0  0  0  0  0
    8.2188    2.5146    0.0000 C   0  0  0  0  0  0  0  0  0  0  0  0
    8.5635    3.2642    0.0000 C   0  0  0  0  0  0  0  0  0  0  0  0
    7.3757    2.4364    0.0000 C   0  0  0  0  0  0  0  0  0  0  0  0
    6.8541    3.0545    0.0000 C   0  0  0  0  0  0  0  0  0  0  0  0
    6.0238    3.2596    0.0000 C   0  0  0  0  0  0  0  0  0  0  0  0
    5.5814    2.5590    0.0000 C   0  0  0  0  0  0  0  0  0  0  0  0
    5.9193    1.8097    0.0000 C   0  0  0  0  0  0  0  0  0  0  0  0
    6.9572    1.7178    0.0000 C   0  0  0  0  0  0  0  0  0  0  0  0
    6.3488    1.5429    0.0000 C   0  0  0  0  0  0  0  0  0  0  0  0
    6.8052    0.7584    0.0000 O   0  0  0  0  0  0  0  0  0  0  0  0
    6.2454    2.4509    0.0000 O   0  0  0  0  0  0  0  0  0  0  0  0
    5.2105    1.3103    0.0000 C   0  0  0  0  0  0  0  0  0  0  0  0
    4.5146    1.7785    0.0000 C   0  0  0  0  0  0  0  0  0  0  0  0
    4.7353    2.5958    0.0000 C   0  0  0  0  0  0  0  0  0  0  0  0
    3.9249    2.3472    0.0000 O   0  0  0  0  0  0  0  0  0  0  0  0
    4.6539    3.4486    0.0000 C   0  0  0  0  0  0  0  0  0  0  0  0
    3.9209    3.8636    0.0000 O   0  0  0  0  0  0  0  0  0  0  0  0
    5.4009    3.8348    0.0000 O   0  0  0  0  0  0  0  0  0  0  0  0
    5.8388    0.8626    0.0000 O   0  0  0  0  0  0  0  0  0  0  0  0
    5.5495    1.7468    0.0000 C   0  0  0  0  0  0  0  0  0  0  0  0
  1  2  1  0  0  0  0
  2  3  2  0  0  0  0
  2  4  1  0  0  0  0
  4  5  1  0  0  0  0
  5  6  1  0  0  0  0
  6  7  1  0  0  0  0
  7  8  1  0  0  0  0
  8  9  1  0  0  0  0
  4  9  1  0  0  0  0
  9 10  1  0  0  0  0
 10 11  2  0  0  0  0
 10 12  1  0  0  0  0
  5 12  1  0  0  0  0
  8 13  1  0  0  0  0
 13 14  1  0  0  0  0
 14 15  1  0  0  0  0
  7 15  1  0  0  0  0
 15 16  1  0  0  0  0
 14 16  1  0  0  0  0
 15 17  1  0  0  0  0
 17 18  2  0  0  0  0
 17 19  1  0  0  0  0
  6 19  1  0  0  0  0
  8 20  1  0  0  0  0
  7 21  1  0  0  0  0
M  END
>  <MOL_ID>
79
>  <Name_of_compounds>
picrotoxinin
>  <Activity_Profiles>
0 0 0 0 0
>  <INITIAL_ID>
1334

>  <SUM_activity>
0

$$$$

  Marvin  08130811232D          

 14 15  0  0  0  0            999 V2000
    1.9495   -5.4689    0.0000 C   0  0  0  0  0  0  0  0  0  0  0  0
    1.9495   -6.2939    0.0000 C   0  0  0  0  0  0  0  0  0  0  0  0
    2.6169   -6.7789    0.0000 N   0  0  0  0  0  0  0  0  0  0  0  0
    2.3620   -7.5635    0.0000 C   0  0  0  0  0  0  0  0  0  0  0  0
    2.8469   -8.2309    0.0000 C   0  0  0  0  0  0  0  0  0  0  0  0
    3.3318   -8.8984    0.0000 C   0  0  0  0  0  0  0  0  0  0  0  0
    3.8168   -9.5658    0.0000 C   0  0  0  0  0  0  0  0  0  0  0  0
    4.6372   -9.4796    0.0000 C   0  0  0  0  0  0  0  0  0  0  0  0
    5.1222  -10.1470    0.0000 C   0  0  0  0  0  0  0  0  0  0  0  0
    4.7866  -10.9007    0.0000 C   0  0  0  0  0  0  0  0  0  0  0  0
    3.9661  -10.9869    0.0000 N   0  0  0  0  0  0  0  0  0  0  0  0
    3.4812  -10.3195    0.0000 C   0  0  0  0  0  0  0  0  0  0  0  0
    1.5370   -7.5635    0.0000 C   0  0  0  0  0  0  0  0  0  0  0  0
    1.2821   -6.7789    0.0000 S   0  0  0  0  0  0  0  0  0  0  0  0
  1  2  1  0  0  0  0
  2  3  4  0  0  0  0
  3  4  4  0  0  0  0
  4  5  1  0  0  0  0
  5  6  3  0  0  0  0
  6  7  1  0  0  0  0
  7  8  4  0  0  0  0
  8  9  4  0  0  0  0
  9 10  4  0  0  0  0
 10 11  4  0  0  0  0
 11 12  4  0  0  0  0
  7 12  4  0  0  0  0
  4 13  4  0  0  0  0
 13 14  4  0  0  0  0
  2 14  4  0  0  0  0
M  END
>  <MOL_ID>
108
>  <Name_of_compounds>
3-[(2-Methyl-1,3-thiazol-4-yl)ethynyl]pyridine
>  <Activity_Profiles>
0 0 0 0 0
>  <INITIAL_ID>
2075

>  <SUM_activity>
0

$$$$

  Marvin  08130811232D          

 17 18  0  0  0  0            999 V2000
   -0.2522   -3.4941    0.0000 C   0  0  0  0  0  0  0  0  0  0  0  0
    0.4623   -3.9066    0.0000 O   0  0  0  0  0  0  0  0  0  0  0  0
    0.4623   -4.7316    0.0000 C   0  0  0  0  0  0  0  0  0  0  0  0
    1.1768   -5.1441    0.0000 C   0  0  0  0  0  0  0  0  0  0  0  0
    1.1768   -5.9691    0.0000 C   0  0  0  0  0  0  0  0  0  0  0  0
    1.8912   -6.3816    0.0000 O   0  0  0  0  0  0  0  0  0  0  0  0
    0.4623   -6.3816    0.0000 O   0  0  0  0  0  0  0  0  0  0  0  0
   -0.2522   -5.9691    0.0000 C   0  0  0  0  0  0  0  0  0  0  0  0
   -0.2522   -5.1441    0.0000 C   0  0  0  0  0  0  0  0  0  0  0  0
   -0.9666   -6.3816    0.0000 C   0  0  0  0  0  0  0  0  0  0  0  0
   -0.9666   -7.2066    0.0000 C   0  0  0  0  0  0  0  0  0  0  0  0
   -1.6811   -7.6191    0.0000 C   0  0  0  0  0  0  0  0  0  0  0  0
   -1.6811   -8.4441    0.0000 C   0  0  0  0  0  0  0  0  0  0  0  0
   -2.3956   -8.8566    0.0000 C   0  0  0  0  0  0  0  0  0  0  0  0
   -3.1100   -8.4441    0.0000 C   0  0  0  0  0  0  0  0  0  0  0  0
   -3.1100   -7.6191    0.0000 C   0  0  0  0  0  0  0  0  0  0  0  0
   -2.3956   -7.2066    0.0000 C   0  0  0  0  0  0  0  0  0  0  0  0
  1  2  1  0  0  0  0
  2  3  1  0  0  0  0
  3  4  2  0  0  0  0
  4  5  1  0  0  0  0
  5  6  2  0  0  0  0
  5  7  1  0  0  0  0
  7  8  1  0  0  0  0
  8  9  1  0  0  0  0
  3  9  1  0  0  0  0
 10  8  1  4  0  0  0
 10 11  2  0  0  0  0
 11 12  1  0  0  0  0
 12 13  4  0  0  0  0
 13 14  4  0  0  0  0
 14 15  4  0  0  0  0
 15 16  4  0  0  0  0
 16 17  4  0  0  0  0
 12 17  4  0  0  0  0
M  END
>  <MOL_ID>
77
>  <Name_of_compounds>
D,L Kavain
>  <Activity_Profiles>
0 0 0 0 0
>  <INITIAL_ID>
1332

>  <SUM_activity>
0

$$$$

  Marvin  08130811232D          

 19 23  0  0  0  0            999 V2000
    4.8516    0.8823    0.0000 C   0  0  0  0  0  0  0  0  0  0  0  0
    4.8765    0.0517    0.0000 C   0  0  0  0  0  0  0  0  0  0  0  0
    4.1713   -0.2880    0.0000 C   0  0  0  0  0  0  0  0  0  0  0  0
    3.7032   -0.8801    0.0000 C   0  0  0  0  0  0  0  0  0  0  0  0
    4.5320   -0.6215    0.0000 C   0  0  0  0  0  0  0  0  0  0  0  0
    5.1923   -1.1060    0.0000 C   0  0  0  0  0  0  0  0  0  0  0  0
    5.6613   -0.4273    0.0000 C   0  0  0  0  0  0  0  0  0  0  0  0
    6.0146   -1.1728    0.0000 O   0  0  0  0  0  0  0  0  0  0  0  0
    2.9981   -1.2199    0.0000 C   0  0  0  0  0  0  0  0  0  0  0  0
    2.2891   -0.6311    0.0000 C   0  0  0  0  0  0  0  0  0  0  0  0
    2.6822   -0.0622    0.0000 C   0  0  0  0  0  0  0  0  0  0  0  0
    3.3426   -0.5466    0.0000 C   0  0  0  0  0  0  0  0  0  0  0  0
    3.0229   -2.0504    0.0000 C   0  0  0  0  0  0  0  0  0  0  0  0
    3.4992   -2.7241    0.0000 Cl  0  0  0  0  0  0  0  0  0  0  0  0
    2.4341   -2.6283    0.0000 Cl  0  0  0  0  0  0  0  0  0  0  0  0
    3.4783    0.2671    0.0000 Cl  0  0  0  0  0  0  0  0  0  0  0  0
    2.5455    0.7514    0.0000 Cl  0  0  0  0  0  0  0  0  0  0  0  0
    1.4718   -0.7433    0.0000 Cl  0  0  0  0  0  0  0  0  0  0  0  0
    2.6495   -1.9676    0.0000 Cl  0  0  0  0  0  0  0  0  0  0  0  0
  1  2  1  0  0  0  0
  2  3  1  0  0  0  0
  3  4  1  0  0  0  0
  4  5  1  0  0  0  0
  1  5  1  0  0  0  0
  5  6  1  0  0  0  0
  6  7  1  0  0  0  0
  2  7  1  0  0  0  0
  7  8  1  0  0  0  0
  6  8  1  0  0  0  0
  4  9  1  0  0  0  0
  9 10  1  0  0  0  0
 10 11  2  0  0  0  0
 11 12  1  0  0  0  0
  3 12  1  0  0  0  0
 12 13  1  0  0  0  0
  9 13  1  0  0  0  0
 13 14  1  0  0  0  0
 13 15  1  0  0  0  0
 12 16  1  0  0  0  0
 11 17  1  0  0  0  0
 10 18  1  0  0  0  0
  9 19  1  0  0  0  0
M  END
>  <MOL_ID>
76
>  <Name_of_compounds>
Dieldrin
>  <Activity_Profiles>
0 0 0 0 0
>  <INITIAL_ID>
1331

>  <SUM_activity>
0

$$$$

  Marvin  08130811232D          

 11 11  0  0  0  0            999 V2000
    0.7145   -0.4125    0.0000 C   0  0  0  0  0  0  0  0  0  0  0  0
   -0.0000    0.0000    0.0000 C   0  0  0  0  0  0  0  0  0  0  0  0
   -0.0000    0.8250    0.0000 C   0  0  0  0  0  0  0  0  0  0  0  0
    0.7145    1.2375    0.0000 C   0  0  0  0  0  0  0  0  0  0  0  0
    1.4289    0.8250    0.0000 C   0  0  0  0  0  0  0  0  0  0  0  0
    1.4289    0.0000    0.0000 C   0  0  0  0  0  0  0  0  0  0  0  0
    0.7145    2.0625    0.0000 N   0  0  0  0  0  0  0  0  0  0  0  0
    1.4289    2.4750    0.0000 N   0  0  0  0  0  0  0  0  0  0  0  0
    1.4289    3.3000    0.0000 C   0  0  0  0  0  0  0  0  0  0  0  0
    0.7145    3.7125    0.0000 O   0  0  0  0  0  0  0  0  0  0  0  0
    2.1434    3.7125    0.0000 N   0  0  0  0  0  0  0  0  0  0  0  0
  1  2  4  0  0  0  0
  2  3  4  0  0  0  0
  3  4  4  0  0  0  0
  4  5  4  0  0  0  0
  5  6  4  0  0  0  0
  1  6  4  0  0  0  0
  4  7  1  0  0  0  0
  7  8  1  0  0  0  0
  8  9  1  0  0  0  0
  9 10  2  0  0  0  0
  9 11  1  0  0  0  0
M  END
>  <MOL_ID>
78
>  <Name_of_compounds>
1-phenylsemicarbazide
>  <Activity_Profiles>
0 0 0 0 0
>  <INITIAL_ID>
1333

>  <SUM_activity>
0

$$$$

  Marvin  08130811232D          

 20 23  0  0  0  0            999 V2000
    6.9289    4.9593    0.0000 C   0  0  0  0  0  0  0  0  0  0  0  0
    6.7454    4.1550    0.0000 C   0  0  0  0  0  0  0  0  0  0  0  0
    5.9570    3.9118    0.0000 C   0  0  0  0  0  0  0  0  0  0  0  0
    5.7734    3.1075    0.0000 C   0  0  0  0  0  0  0  0  0  0  0  0
    6.3782    2.5464    0.0000 N   0  0  0  0  0  0  0  0  0  0  0  0
    7.1665    2.7896    0.0000 C   0  0  0  0  0  0  0  0  0  0  0  0
    7.3501    3.5939    0.0000 C   0  0  0  0  0  0  0  0  0  0  0  0
    5.0301    2.7496    0.0000 N   0  0  0  0  0  0  0  0  0  0  0  0
    4.2868    3.1075    0.0000 C   0  0  0  0  0  0  0  0  0  0  0  0
    4.1032    3.9118    0.0000 C   0  0  0  0  0  0  0  0  0  0  0  0
    3.3149    4.1550    0.0000 C   0  0  0  0  0  0  0  0  0  0  0  0
    2.7101    3.5939    0.0000 C   0  0  0  0  0  0  0  0  0  0  0  0
    2.8937    2.7896    0.0000 C   0  0  0  0  0  0  0  0  0  0  0  0
    3.6821    2.5464    0.0000 N   0  0  0  0  0  0  0  0  0  0  0  0
    4.6176    4.5569    0.0000 C   0  0  0  0  0  0  0  0  0  0  0  0
    4.2597    5.3002    0.0000 O   0  0  0  0  0  0  0  0  0  0  0  0
    5.4426    4.5569    0.0000 N   0  0  0  0  0  0  0  0  0  0  0  0
    5.0301    1.9246    0.0000 C   0  0  0  0  0  0  0  0  0  0  0  0
    5.4426    1.2101    0.0000 C   0  0  0  0  0  0  0  0  0  0  0  0
    4.6176    1.2101    0.0000 C   0  0  0  0  0  0  0  0  0  0  0  0
  1  2  1  0  0  0  0
  2  3  4  0  0  0  0
  3  4  4  0  0  0  0
  4  5  4  0  0  0  0
  5  6  4  0  0  0  0
  6  7  4  0  0  0  0
  2  7  4  0  0  0  0
  4  8  1  0  0  0  0
  8  9  1  0  0  0  0
  9 10  4  0  0  0  0
 10 11  4  0  0  0  0
 11 12  4  0  0  0  0
 12 13  4  0  0  0  0
 13 14  4  0  0  0  0
  9 14  4  0  0  0  0
 10 15  1  0  0  0  0
 15 16  2  0  0  0  0
 15 17  1  0  0  0  0
  3 17  1  0  0  0  0
  8 18  1  0  0  0  0
 18 19  1  0  0  0  0
 19 20  1  0  0  0  0
 18 20  1  0  0  0  0
M  END
>  <MOL_ID>
114
>  <Name_of_compounds>
Nevirapine
>  <Activity_Profiles>
0 0 0 0 0
>  <INITIAL_ID>
2101

>  <SUM_activity>
0

$$$$

  Marvin  08130811232D          

 15 16  0  0  0  0            999 V2000
    0.3903   -3.5889    0.0000 C   0  0  0  0  0  0  0  0  0  0  0  0
    0.1354   -4.3736    0.0000 C   0  0  0  0  0  0  0  0  0  0  0  0
   -0.6896   -4.3736    0.0000 C   0  0  0  0  0  0  0  0  0  0  0  0
   -0.9445   -3.5889    0.0000 O   0  0  0  0  0  0  0  0  0  0  0  0
   -0.2771   -3.1040    0.0000 C   0  0  0  0  0  0  0  0  0  0  0  0
   -0.2771   -2.2790    0.0000 C   0  0  0  0  0  0  0  0  0  0  0  0
    0.4374   -1.8665    0.0000 O   0  0  0  0  0  0  0  0  0  0  0  0
   -1.1745   -5.0410    0.0000 N   0  0  0  0  0  0  0  0  0  0  0  0
   -0.8390   -5.7947    0.0000 C   0  0  0  0  0  0  0  0  0  0  0  0
   -1.3239   -6.4621    0.0000 C   0  0  0  0  0  0  0  0  0  0  0  0
   -2.1444   -6.3759    0.0000 C   0  0  0  0  0  0  0  0  0  0  0  0
   -2.4799   -5.6222    0.0000 N   0  0  0  0  0  0  0  0  0  0  0  0
   -1.9950   -4.9548    0.0000 C   0  0  0  0  0  0  0  0  0  0  0  0
   -2.3306   -4.2011    0.0000 O   0  0  0  0  0  0  0  0  0  0  0  0
   -2.6293   -7.0433    0.0000 N   0  0  0  0  0  0  0  0  0  0  0  0
  1  2  1  0  0  0  0
  2  3  1  0  0  0  0
  3  4  1  0  0  0  0
  4  5  1  0  0  0  0
  1  5  1  0  0  0  0
  5  6  1  0  0  0  0
  6  7  1  0  0  0  0
  3  8  1  0  0  0  0
  8  9  1  0  0  0  0
  9 10  2  0  0  0  0
 10 11  1  0  0  0  0
 11 12  2  0  0  0  0
 12 13  1  0  0  0  0
  8 13  1  0  0  0  0
 13 14  2  0  0  0  0
 11 15  1  0  0  0  0
M  END
>  <MOL_ID>
115
>  <Name_of_compounds>
Zalcitabine
>  <Activity_Profiles>
0 0 0 0 0
>  <INITIAL_ID>
2102

>  <SUM_activity>
0

$$$$

  Marvin  08130811232D          

 40 43  0  0  0  0            999 V2000
   -0.8297   -1.1650    0.0000 C   0  0  0  0  0  0  0  0  0  0  0  0
   -1.4436   -0.4072    0.0000 C   0  0  0  0  0  0  0  0  0  0  0  0
   -1.2190    0.3867    0.0000 C   0  0  0  0  0  0  0  0  0  0  0  0
   -1.7942    0.9781    0.0000 C   0  0  0  0  0  0  0  0  0  0  0  0
   -2.5940    0.7756    0.0000 C   0  0  0  0  0  0  0  0  0  0  0  0
   -2.8185   -0.0182    0.0000 C   0  0  0  0  0  0  0  0  0  0  0  0
   -2.2433   -0.6096    0.0000 C   0  0  0  0  0  0  0  0  0  0  0  0
   -3.1347   -0.6050    0.0000 O   0  0  0  0  0  0  0  0  0  0  0  0
   -0.4766    0.7823    0.0000 C   0  0  0  0  0  0  0  0  0  0  0  0
   -0.7735    1.5746    0.0000 O   0  0  0  0  0  0  0  0  0  0  0  0
   -0.0221    0.0540    0.0000 N   0  0  0  0  0  0  0  0  0  0  0  0
    0.1588   -0.7921    0.0000 C   0  0  0  0  0  0  0  0  0  0  0  0
   -0.6590   -0.6229    0.0000 C   0  0  0  0  0  0  0  0  0  0  0  0
   -1.3628   -1.1972    0.0000 S   0  0  0  0  0  0  0  0  0  0  0  0
   -2.1075   -1.4352    0.0000 C   0  0  0  0  0  0  0  0  0  0  0  0
   -1.9244   -2.2663    0.0000 C   0  0  0  0  0  0  0  0  0  0  0  0
   -2.4525   -2.9002    0.0000 C   0  0  0  0  0  0  0  0  0  0  0  0
   -3.2655   -2.7598    0.0000 C   0  0  0  0  0  0  0  0  0  0  0  0
   -3.5504   -1.9856    0.0000 C   0  0  0  0  0  0  0  0  0  0  0  0
   -3.0223   -1.3517    0.0000 C   0  0  0  0  0  0  0  0  0  0  0  0
    0.5233   -1.5767    0.0000 C   0  0  0  0  0  0  0  0  0  0  0  0
    1.2663   -1.1972    0.0000 C   0  0  0  0  0  0  0  0  0  0  0  0
    1.5310   -0.3913    0.0000 N   0  0  0  0  0  0  0  0  0  0  0  0
    0.9558    0.2001    0.0000 C   0  0  0  0  0  0  0  0  0  0  0  0
    1.1803    0.9940    0.0000 C   0  0  0  0  0  0  0  0  0  0  0  0
    0.6051    1.5854    0.0000 C   0  0  0  0  0  0  0  0  0  0  0  0
    0.8297    2.3792    0.0000 C   0  0  0  0  0  0  0  0  0  0  0  0
    1.6295    2.5817    0.0000 C   0  0  0  0  0  0  0  0  0  0  0  0
    2.2047    1.9902    0.0000 C   0  0  0  0  0  0  0  0  0  0  0  0
    1.9801    1.1964    0.0000 C   0  0  0  0  0  0  0  0  0  0  0  0
    2.5553    0.6050    0.0000 C   0  0  0  0  0  0  0  0  0  0  0  0
    2.3308   -0.1889    0.0000 C   0  0  0  0  0  0  0  0  0  0  0  0
    2.9321   -0.8019    0.0000 C   0  0  0  0  0  0  0  0  0  0  0  0
    2.7349   -1.6192    0.0000 O   0  0  0  0  0  0  0  0  0  0  0  0
    3.7811   -0.8473    0.0000 N   0  0  0  0  0  0  0  0  0  0  0  0
    4.5285   -1.2529    0.0000 C   0  0  0  0  0  0  0  0  0  0  0  0
    4.1403   -2.0051    0.0000 C   0  0  0  0  0  0  0  0  0  0  0  0
    5.0116   -0.5576    0.0000 C   0  0  0  0  0  0  0  0  0  0  0  0
    5.2095   -1.7578    0.0000 C   0  0  0  0  0  0  0  0  0  0  0  0
    0.5828   -2.4181    0.0000 O   0  0  0  0  0  0  0  0  0  0  0  0
  1  2  1  0  0  0  0
  2  3  4  0  0  0  0
  3  4  4  0  0  0  0
  4  5  4  0  0  0  0
  5  6  4  0  0  0  0
  6  7  4  0  0  0  0
  2  7  4  0  0  0  0
  7  8  1  0  0  0  0
  3  9  1  0  0  0  0
  9 10  2  0  0  0  0
  9 11  1  0  0  0  0
 11 12  1  0  0  0  0
 12 13  1  0  0  0  0
 13 14  1  0  0  0  0
 14 15  1  0  0  0  0
 15 16  4  0  0  0  0
 16 17  4  0  0  0  0
 17 18  4  0  0  0  0
 18 19  4  0  0  0  0
 19 20  4  0  0  0  0
 15 20  4  0  0  0  0
 12 21  1  0  0  0  0
 21 22  1  0  0  0  0
 22 23  1  0  0  0  0
 23 24  1  0  0  0  0
 24 25  1  0  0  0  0
 25 26  1  0  0  0  0
 26 27  1  0  0  0  0
 27 28  1  0  0  0  0
 28 29  1  0  0  0  0
 29 30  1  0  0  0  0
 25 30  1  0  0  0  0
 30 31  1  0  0  0  0
 31 32  1  0  0  0  0
 23 32  1  0  0  0  0
 32 33  1  0  0  0  0
 33 34  2  0  0  0  0
 33 35  1  0  0  0  0
 35 36  1  0  0  0  0
 36 37  1  0  0  0  0
 36 38  1  0  0  0  0
 36 39  1  0  0  0  0
 21 40  1  0  0  0  0
M  END
>  <MOL_ID>
113
>  <Name_of_compounds>
Nelfinavir mesylate
>  <Activity_Profiles>
0 0 0 0 0
>  <INITIAL_ID>
2100

>  <SUM_activity>
0

$$$$

  Marvin  08130811232D          

 14 15  0  0  0  0            999 V2000
   -0.5259    2.0124    0.0000 O   0  0  0  0  0  0  0  0  0  0  0  0
   -0.6974    1.2054    0.0000 S   0  0  0  0  0  0  0  0  0  0  0  0
    0.1096    1.0339    0.0000 C   0  0  0  0  0  0  0  0  0  0  0  0
    0.3645    0.2493    0.0000 C   0  0  0  0  0  0  0  0  0  0  0  0
   -0.1204   -0.4181    0.0000 N   0  0  0  0  0  0  0  0  0  0  0  0
    0.3645   -1.0856    0.0000 O   0  0  0  0  0  0  0  0  0  0  0  0
    1.1492   -0.8306    0.0000 C   0  0  0  0  0  0  0  0  0  0  0  0
    1.1492   -0.0056    0.0000 C   0  0  0  0  0  0  0  0  0  0  0  0
    1.8636    0.4069    0.0000 C   0  0  0  0  0  0  0  0  0  0  0  0
    2.5781   -0.0056    0.0000 C   0  0  0  0  0  0  0  0  0  0  0  0
    2.5781   -0.8306    0.0000 C   0  0  0  0  0  0  0  0  0  0  0  0
    1.8636   -1.2431    0.0000 C   0  0  0  0  0  0  0  0  0  0  0  0
   -1.5044    1.3770    0.0000 N   0  0  0  0  0  0  0  0  0  0  0  0
   -0.8689    0.3985    0.0000 O   0  0  0  0  0  0  0  0  0  0  0  0
  1  2  2  0  0  0  0
  2  3  1  0  0  0  0
  3  4  1  0  0  0  0
  4  5  4  0  0  0  0
  5  6  4  0  0  0  0
  6  7  4  0  0  0  0
  7  8  4  0  0  0  0
  4  8  4  0  0  0  0
  8  9  4  0  0  0  0
  9 10  4  0  0  0  0
 10 11  4  0  0  0  0
 11 12  4  0  0  0  0
  7 12  4  0  0  0  0
  2 13  1  0  0  0  0
  2 14  2  0  0  0  0
M  END
>  <MOL_ID>
52
>  <Name_of_compounds>
Zonisamide
>  <Activity_Profiles>
0 0 0 0 0
>  <INITIAL_ID>
1268

>  <SUM_activity>
0

$$$$

  Marvin  08130811232D          

 19 20  0  0  0  0            999 V2000
   -4.1364   -1.8237    0.0000 C   0  0  0  0  0  0  0  0  0  0  0  0
   -3.4219   -1.4112    0.0000 C   0  0  0  0  0  0  0  0  0  0  0  0
   -2.7075   -1.8237    0.0000 C   0  0  0  0  0  0  0  0  0  0  0  0
   -2.7075   -2.6487    0.0000 C   0  0  0  0  0  0  0  0  0  0  0  0
   -3.4219   -3.0612    0.0000 C   0  0  0  0  0  0  0  0  0  0  0  0
   -4.1364   -2.6487    0.0000 C   0  0  0  0  0  0  0  0  0  0  0  0
   -1.9930   -3.0612    0.0000 C   0  0  0  0  0  0  0  0  0  0  0  0
   -1.9930   -3.8862    0.0000 C   0  0  0  0  0  0  0  0  0  0  0  0
   -1.2785   -4.2987    0.0000 C   0  0  0  0  0  0  0  0  0  0  0  0
   -1.2785   -5.1237    0.0000 C   0  0  0  0  0  0  0  0  0  0  0  0
   -1.9930   -5.5362    0.0000 C   0  0  0  0  0  0  0  0  0  0  0  0
   -2.7075   -5.1237    0.0000 C   0  0  0  0  0  0  0  0  0  0  0  0
   -2.7075   -4.2987    0.0000 C   0  0  0  0  0  0  0  0  0  0  0  0
   -1.2785   -2.6487    0.0000 S   0  0  0  0  0  0  0  0  0  0  0  0
   -1.2785   -1.8237    0.0000 O   0  0  0  0  0  0  0  0  0  0  0  0
   -0.5641   -3.0612    0.0000 C   0  0  0  0  0  0  0  0  0  0  0  0
    0.1504   -2.6487    0.0000 C   0  0  0  0  0  0  0  0  0  0  0  0
    0.1504   -1.8237    0.0000 O   0  0  0  0  0  0  0  0  0  0  0  0
    0.8649   -3.0612    0.0000 N   0  0  0  0  0  0  0  0  0  0  0  0
  1  2  4  0  0  0  0
  2  3  4  0  0  0  0
  3  4  4  0  0  0  0
  4  5  4  0  0  0  0
  5  6  4  0  0  0  0
  1  6  4  0  0  0  0
  4  7  1  0  0  0  0
  7  8  1  0  0  0  0
  8  9  4  0  0  0  0
  9 10  4  0  0  0  0
 10 11  4  0  0  0  0
 11 12  4  0  0  0  0
 12 13  4  0  0  0  0
  8 13  4  0  0  0  0
  7 14  1  0  0  0  0
 14 15  2  0  0  0  0
 14 16  1  0  0  0  0
 16 17  1  0  0  0  0
 17 18  2  0  0  0  0
 17 19  1  0  0  0  0
M  END
>  <MOL_ID>
51
>  <Name_of_compounds>
Modafinil
>  <Activity_Profiles>
0 0 0 0 0
>  <INITIAL_ID>
686

>  <SUM_activity>
0

$$$$

  Marvin  08130811232D          

 19 20  0  0  0  0            999 V2000
   -0.6260    5.8648    0.0000 C   0  0  0  0  0  0  0  0  0  0  0  0
   -1.3405    5.4523    0.0000 C   0  0  0  0  0  0  0  0  0  0  0  0
   -1.3405    4.6273    0.0000 C   0  0  0  0  0  0  0  0  0  0  0  0
   -2.0550    4.2148    0.0000 N   0  0  0  0  0  0  0  0  0  0  0  0
   -2.7694    4.6273    0.0000 C   0  0  0  0  0  0  0  0  0  0  0  0
   -3.4839    4.2148    0.0000 O   0  0  0  0  0  0  0  0  0  0  0  0
   -2.7694    5.4523    0.0000 N   0  0  0  0  0  0  0  0  0  0  0  0
   -2.0550    5.8648    0.0000 C   0  0  0  0  0  0  0  0  0  0  0  0
   -2.0550    6.6898    0.0000 O   0  0  0  0  0  0  0  0  0  0  0  0
   -2.0550    3.3898    0.0000 C   0  0  0  0  0  0  0  0  0  0  0  0
   -1.3875    2.9049    0.0000 C   0  0  0  0  0  0  0  0  0  0  0  0
   -1.6425    2.1203    0.0000 C   0  0  0  0  0  0  0  0  0  0  0  0
   -2.4675    2.1203    0.0000 C   0  0  0  0  0  0  0  0  0  0  0  0
   -2.7224    2.9049    0.0000 O   0  0  0  0  0  0  0  0  0  0  0  0
   -2.9524    1.4528    0.0000 C   0  0  0  0  0  0  0  0  0  0  0  0
   -3.7729    1.5391    0.0000 O   0  0  0  0  0  0  0  0  0  0  0  0
   -1.1575    1.4528    0.0000 N   0  0  0  0  0  0  0  0  0  0  0  0
   -1.4931    0.6991    0.0000 N   0  3  0  0  0  0  0  0  0  0  0  0
   -1.8287   -0.0545    0.0000 N   0  0  0  0  0  0  0  0  0  0  0  0
  1  2  1  0  0  0  0
  2  3  2  0  0  0  0
  3  4  1  0  0  0  0
  4  5  1  0  0  0  0
  5  6  2  0  0  0  0
  5  7  1  0  0  0  0
  7  8  1  0  0  0  0
  2  8  1  0  0  0  0
  8  9  2  0  0  0  0
  4 10  1  0  0  0  0
 10 11  1  0  0  0  0
 11 12  1  0  0  0  0
 12 13  1  0  0  0  0
 13 14  1  0  0  0  0
 10 14  1  0  0  0  0
 13 15  1  0  0  0  0
 15 16  1  0  0  0  0
 12 17  1  0  0  0  0
 17 18  2  0  0  0  0
 18 19  2  0  0  0  0
M  CHG  1  18   1
M  END
>  <MOL_ID>
117
>  <Name_of_compounds>
Zidovudine
>  <Activity_Profiles>
0 0 0 0 0
>  <INITIAL_ID>
2104

>  <SUM_activity>
0

$$$$

  Marvin  08130811232D          

 45 49  0  0  0  0            999 V2000
   -0.3426   -2.1711    0.0000 C   0  0  0  0  0  0  0  0  0  0  0  0
   -1.1676   -2.1711    0.0000 C   0  0  0  0  0  0  0  0  0  0  0  0
   -1.1676   -2.9961    0.0000 C   0  0  0  0  0  0  0  0  0  0  0  0
   -1.9926   -2.1711    0.0000 C   0  0  0  0  0  0  0  0  0  0  0  0
   -1.1676   -1.3461    0.0000 N   0  0  0  0  0  0  0  0  0  0  0  0
   -1.8821   -0.9336    0.0000 C   0  0  0  0  0  0  0  0  0  0  0  0
   -2.5965   -1.3461    0.0000 O   0  0  0  0  0  0  0  0  0  0  0  0
   -1.8821   -0.1086    0.0000 C   0  0  0  0  0  0  0  0  0  0  0  0
   -2.5965    0.3039    0.0000 C   0  0  0  0  0  0  0  0  0  0  0  0
   -2.5965    1.1289    0.0000 N   0  0  0  0  0  0  0  0  0  0  0  0
   -1.8821    1.5414    0.0000 C   0  0  0  0  0  0  0  0  0  0  0  0
   -1.1676    1.1289    0.0000 C   0  0  0  0  0  0  0  0  0  0  0  0
   -1.1676    0.3039    0.0000 N   0  0  0  0  0  0  0  0  0  0  0  0
   -0.4531   -0.1086    0.0000 C   0  0  0  0  0  0  0  0  0  0  0  0
    0.2614    0.3039    0.0000 C   0  0  0  0  0  0  0  0  0  0  0  0
    0.9758   -0.1086    0.0000 C   0  0  0  0  0  0  0  0  0  0  0  0
    1.6903    0.3039    0.0000 C   0  0  0  0  0  0  0  0  0  0  0  0
    1.6903    1.1289    0.0000 C   0  0  0  0  0  0  0  0  0  0  0  0
    2.4048    1.5414    0.0000 C   0  0  0  0  0  0  0  0  0  0  0  0
    2.4048    2.3664    0.0000 C   0  0  0  0  0  0  0  0  0  0  0  0
    3.1192    2.7789    0.0000 C   0  0  0  0  0  0  0  0  0  0  0  0
    3.8337    2.3664    0.0000 C   0  0  0  0  0  0  0  0  0  0  0  0
    3.8337    1.5414    0.0000 C   0  0  0  0  0  0  0  0  0  0  0  0
    3.1192    1.1289    0.0000 C   0  0  0  0  0  0  0  0  0  0  0  0
    2.4048   -0.1086    0.0000 C   0  0  0  0  0  0  0  0  0  0  0  0
    2.4048   -0.9336    0.0000 O   0  0  0  0  0  0  0  0  0  0  0  0
    3.1192    0.3039    0.0000 N   0  0  0  0  0  0  0  0  0  0  0  0
    3.8337   -0.1086    0.0000 C   0  0  0  0  0  0  0  0  0  0  0  0
    4.5874    0.2270    0.0000 C   0  0  0  0  0  0  0  0  0  0  0  0
    5.1394   -0.3861    0.0000 C   0  0  0  0  0  0  0  0  0  0  0  0
    4.7269   -1.1006    0.0000 C   0  0  0  0  0  0  0  0  0  0  0  0
    4.9819   -1.8852    0.0000 C   0  0  0  0  0  0  0  0  0  0  0  0
    4.4298   -2.4983    0.0000 C   0  0  0  0  0  0  0  0  0  0  0  0
    3.6229   -2.3267    0.0000 C   0  0  0  0  0  0  0  0  0  0  0  0
    3.3679   -1.5421    0.0000 C   0  0  0  0  0  0  0  0  0  0  0  0
    3.9200   -0.9290    0.0000 C   0  0  0  0  0  0  0  0  0  0  0  0
    4.7589    1.0340    0.0000 O   0  0  0  0  0  0  0  0  0  0  0  0
    0.2614    1.1289    0.0000 O   0  0  0  0  0  0  0  0  0  0  0  0
   -3.3110    1.5414    0.0000 C   0  0  0  0  0  0  0  0  0  0  0  0
   -3.3110    2.3664    0.0000 C   0  0  0  0  0  0  0  0  0  0  0  0
   -4.0255    2.7789    0.0000 C   0  0  0  0  0  0  0  0  0  0  0  0
   -4.0255    3.6039    0.0000 N   0  0  0  0  0  0  0  0  0  0  0  0
   -3.3110    4.0164    0.0000 C   0  0  0  0  0  0  0  0  0  0  0  0
   -2.5965    3.6039    0.0000 C   0  0  0  0  0  0  0  0  0  0  0  0
   -2.5965    2.7789    0.0000 C   0  0  0  0  0  0  0  0  0  0  0  0
  1  2  1  0  0  0  0
  2  3  1  0  0  0  0
  2  4  1  0  0  0  0
  2  5  1  0  0  0  0
  5  6  1  0  0  0  0
  6  7  2  0  0  0  0
  6  8  1  0  0  0  0
  8  9  1  0  0  0  0
  9 10  1  0  0  0  0
 10 11  1  0  0  0  0
 11 12  1  0  0  0  0
 12 13  1  0  0  0  0
  8 13  1  0  0  0  0
 13 14  1  0  0  0  0
 14 15  1  0  0  0  0
 15 16  1  0  0  0  0
 16 17  1  0  0  0  0
 17 18  1  0  0  0  0
 18 19  1  0  0  0  0
 19 20  4  0  0  0  0
 20 21  4  0  0  0  0
 21 22  4  0  0  0  0
 22 23  4  0  0  0  0
 23 24  4  0  0  0  0
 19 24  4  0  0  0  0
 17 25  1  0  0  0  0
 25 26  2  0  0  0  0
 25 27  1  0  0  0  0
 27 28  1  0  0  0  0
 28 29  1  0  0  0  0
 29 30  1  0  0  0  0
 30 31  1  0  0  0  0
 31 32  4  0  0  0  0
 32 33  4  0  0  0  0
 33 34  4  0  0  0  0
 34 35  4  0  0  0  0
 35 36  4  0  0  0  0
 28 36  1  0  0  0  0
 31 36  4  0  0  0  0
 29 37  1  0  0  0  0
 15 38  1  0  0  0  0
 10 39  1  0  0  0  0
 39 40  1  0  0  0  0
 40 41  4  0  0  0  0
 41 42  4  0  0  0  0
 42 43  4  0  0  0  0
 43 44  4  0  0  0  0
 44 45  4  0  0  0  0
 40 45  4  0  0  0  0
M  END
>  <MOL_ID>
109
>  <Name_of_compounds>
Indinavir sulphate
>  <Activity_Profiles>
0 0 0 0 0
>  <INITIAL_ID>
2096

>  <SUM_activity>
0

$$$$

  Marvin  08130811232D          

 21 23  0  0  1  0            999 V2000
   -0.2345   -0.2343    0.0000 Cl  0  0  0  0  0  0  0  0  0  0  0  0
    0.4800   -0.6468    0.0000 C   0  0  0  0  0  0  0  0  0  0  0  0
    0.4800   -1.4718    0.0000 C   0  0  0  0  0  0  0  0  0  0  0  0
    1.1945   -1.8843    0.0000 C   0  0  0  0  0  0  0  0  0  0  0  0
    1.9090   -1.4718    0.0000 C   0  0  0  0  0  0  0  0  0  0  0  0
    1.9090   -0.6468    0.0000 C   0  0  0  0  0  0  0  0  0  0  0  0
    2.6234   -0.2343    0.0000 C   0  0  1  0  0  0  0  0  0  0  0  0
    2.0931    0.3977    0.0000 C   0  0  0  0  0  0  0  0  0  0  0  0
    1.5628    1.0297    0.0000 C   0  0  0  0  0  0  0  0  0  0  0  0
    1.0325    1.6617    0.0000 C   0  0  0  0  0  0  0  0  0  0  0  0
    0.2573    1.9438    0.0000 C   0  0  0  0  0  0  0  0  0  0  0  0
    0.8893    2.4741    0.0000 C   0  0  0  0  0  0  0  0  0  0  0  0
    3.1537    0.3977    0.0000 C   0  0  0  0  0  0  0  0  0  0  0  0
    3.7857   -0.1326    0.0000 F   0  0  0  0  0  0  0  0  0  0  0  0
    3.6840    1.0297    0.0000 F   0  0  0  0  0  0  0  0  0  0  0  0
    2.5217    0.9280    0.0000 F   0  0  0  0  0  0  0  0  0  0  0  0
    3.3379   -0.6468    0.0000 O   0  0  0  0  0  0  0  0  0  0  0  0
    3.3379   -1.4718    0.0000 C   0  0  0  0  0  0  0  0  0  0  0  0
    2.6234   -1.8843    0.0000 N   0  0  0  0  0  0  0  0  0  0  0  0
    4.0524   -1.8843    0.0000 O   0  0  0  0  0  0  0  0  0  0  0  0
    1.1945   -0.2343    0.0000 C   0  0  0  0  0  0  0  0  0  0  0  0
  1  2  1  0  0  0  0
  2  3  4  0  0  0  0
  3  4  4  0  0  0  0
  4  5  4  0  0  0  0
  5  6  4  0  0  0  0
  6  7  1  0  0  0  0
  7  8  1  0  0  0  0
  8  9  3  0  0  0  0
  9 10  1  0  0  0  0
 10 11  1  0  0  0  0
 11 12  1  0  0  0  0
 10 12  1  0  0  0  0
  7 13  1  1  0  0  0
 13 14  1  0  0  0  0
 13 15  1  0  0  0  0
 13 16  1  0  0  0  0
  7 17  1  0  0  0  0
 17 18  1  0  0  0  0
 18 19  1  0  0  0  0
  5 19  1  0  0  0  0
 18 20  2  0  0  0  0
  6 21  4  0  0  0  0
  2 21  4  0  0  0  0
M  END
>  <MOL_ID>
110
>  <Name_of_compounds>
Efavirenz
>  <Activity_Profiles>
0 0 0 0 0
>  <INITIAL_ID>
2097

>  <SUM_activity>
0

$$$$

  Marvin  08130811232D          

 11 12  0  0  0  0            999 V2000
    1.0396   -1.0396    0.0000 C   0  0  0  0  0  0  0  0  0  0  0  0
    0.7846   -0.2549    0.0000 C   0  0  0  0  0  0  0  0  0  0  0  0
   -0.0000   -0.0000    0.0000 C   0  0  0  0  0  0  0  0  0  0  0  0
   -0.7145    0.4125    0.0000 C   0  0  0  0  0  0  0  0  0  0  0  0
   -0.0000    0.8250    0.0000 C   0  0  0  0  0  0  0  0  0  0  0  0
    0.7846    1.0799    0.0000 C   0  0  0  0  0  0  0  0  0  0  0  0
    1.2695    0.4125    0.0000 C   0  0  0  0  0  0  0  0  0  0  0  0
    2.0945    0.4125    0.0000 O   0  0  0  0  0  0  0  0  0  0  0  0
   -0.3356    1.5787    0.0000 C   0  0  0  0  0  0  0  0  0  0  0  0
    0.1494    2.2461    0.0000 C   0  0  0  0  0  0  0  0  0  0  0  0
   -1.1560    1.6649    0.0000 C   0  0  0  0  0  0  0  0  0  0  0  0
  1  2  1  0  0  0  0
  2  3  1  0  0  0  0
  3  4  1  0  0  0  0
  4  5  1  0  0  0  0
  3  5  1  0  0  0  0
  5  6  1  0  0  0  0
  6  7  1  0  0  0  0
  2  7  1  0  0  0  0
  7  8  2  0  0  0  0
  5  9  1  0  0  0  0
  9 10  1  0  0  0  0
  9 11  1  0  0  0  0
M  END
>  <MOL_ID>
63
>  <Name_of_compounds>
Thujone
>  <Activity_Profiles>
0 0 0 0 0
>  <INITIAL_ID>
1311

>  <SUM_activity>
0

$$$$

  Marvin  08130811232D          

 50 53  0  0  0  0            999 V2000
   -4.3551    7.1211    0.0000 C   0  0  0  0  0  0  0  0  0  0  0  0
   -3.8701    7.7885    0.0000 C   0  0  0  0  0  0  0  0  0  0  0  0
   -4.2057    8.5422    0.0000 C   0  0  0  0  0  0  0  0  0  0  0  0
   -3.0497    7.7023    0.0000 C   0  0  0  0  0  0  0  0  0  0  0  0
   -2.4976    8.3154    0.0000 N   0  0  0  0  0  0  0  0  0  0  0  0
   -1.7440    7.9798    0.0000 C   0  0  0  0  0  0  0  0  0  0  0  0
   -1.8302    7.1593    0.0000 C   0  0  0  0  0  0  0  0  0  0  0  0
   -2.6372    6.9878    0.0000 S   0  0  0  0  0  0  0  0  0  0  0  0
   -1.0295    8.3923    0.0000 C   0  0  0  0  0  0  0  0  0  0  0  0
   -0.3150    7.9798    0.0000 N   0  0  0  0  0  0  0  0  0  0  0  0
   -0.3150    7.1548    0.0000 C   0  0  0  0  0  0  0  0  0  0  0  0
    0.3995    8.3923    0.0000 C   0  0  0  0  0  0  0  0  0  0  0  0
    0.3995    9.2173    0.0000 O   0  0  0  0  0  0  0  0  0  0  0  0
    1.1139    7.9798    0.0000 N   0  0  0  0  0  0  0  0  0  0  0  0
    1.8284    8.3923    0.0000 C   0  0  0  0  0  0  0  0  0  0  0  0
    1.8284    9.2173    0.0000 C   0  0  0  0  0  0  0  0  0  0  0  0
    2.5429    9.6298    0.0000 C   0  0  0  0  0  0  0  0  0  0  0  0
    1.1139    9.6298    0.0000 C   0  0  0  0  0  0  0  0  0  0  0  0
    2.5429    7.9798    0.0000 C   0  0  0  0  0  0  0  0  0  0  0  0
    2.5429    7.1548    0.0000 O   0  0  0  0  0  0  0  0  0  0  0  0
    3.2573    8.3923    0.0000 N   0  0  0  0  0  0  0  0  0  0  0  0
    3.9718    7.9798    0.0000 C   0  0  0  0  0  0  0  0  0  0  0  0
    3.9718    7.1548    0.0000 C   0  0  0  0  0  0  0  0  0  0  0  0
    4.6863    6.7423    0.0000 C   0  0  0  0  0  0  0  0  0  0  0  0
    5.4008    7.1548    0.0000 C   0  0  0  0  0  0  0  0  0  0  0  0
    6.1152    6.7423    0.0000 C   0  0  0  0  0  0  0  0  0  0  0  0
    6.1152    5.9173    0.0000 C   0  0  0  0  0  0  0  0  0  0  0  0
    5.4008    5.5048    0.0000 C   0  0  0  0  0  0  0  0  0  0  0  0
    4.6863    5.9173    0.0000 C   0  0  0  0  0  0  0  0  0  0  0  0
    4.6863    8.3923    0.0000 C   0  0  0  0  0  0  0  0  0  0  0  0
    5.4008    7.9798    0.0000 C   0  0  0  0  0  0  0  0  0  0  0  0
    6.1152    8.3923    0.0000 C   0  0  0  0  0  0  0  0  0  0  0  0
    6.1152    9.2173    0.0000 C   0  0  0  0  0  0  0  0  0  0  0  0
    5.4008    9.6298    0.0000 C   0  0  0  0  0  0  0  0  0  0  0  0
    4.6863    9.2173    0.0000 C   0  0  0  0  0  0  0  0  0  0  0  0
    3.9718    9.6298    0.0000 C   0  0  0  0  0  0  0  0  0  0  0  0
    3.9718   10.4548    0.0000 C   0  0  0  0  0  0  0  0  0  0  0  0
    4.6863   10.8673    0.0000 C   0  0  0  0  0  0  0  0  0  0  0  0
    5.4008   10.4548    0.0000 C   0  0  0  0  0  0  0  0  0  0  0  0
    6.8297    7.9798    0.0000 N   0  0  0  0  0  0  0  0  0  0  0  0
    7.5442    8.3923    0.0000 C   0  0  0  0  0  0  0  0  0  0  0  0
    7.5442    9.2173    0.0000 O   0  0  0  0  0  0  0  0  0  0  0  0
    8.2586    7.9798    0.0000 O   0  0  0  0  0  0  0  0  0  0  0  0
    8.9731    8.3923    0.0000 C   0  0  0  0  0  0  0  0  0  0  0  0
    9.6876    7.9798    0.0000 C   0  0  0  0  0  0  0  0  0  0  0  0
    9.7738    7.1593    0.0000 C   0  0  0  0  0  0  0  0  0  0  0  0
   10.5808    6.9878    0.0000 N   0  0  0  0  0  0  0  0  0  0  0  0
   10.9933    7.7023    0.0000 C   0  0  0  0  0  0  0  0  0  0  0  0
   10.4413    8.3154    0.0000 S   0  0  0  0  0  0  0  0  0  0  0  0
    5.8857    7.3124    0.0000 O   0  0  0  0  0  0  0  0  0  0  0  0
  1  2  1  0  0  0  0
  2  3  1  0  0  0  0
  2  4  1  0  0  0  0
  4  5  4  0  0  0  0
  5  6  4  0  0  0  0
  6  7  4  0  0  0  0
  7  8  4  0  0  0  0
  4  8  4  0  0  0  0
  6  9  1  0  0  0  0
  9 10  1  0  0  0  0
 10 11  1  0  0  0  0
 10 12  1  0  0  0  0
 12 13  2  0  0  0  0
 12 14  1  0  0  0  0
 14 15  1  0  0  0  0
 15 16  1  0  0  0  0
 16 17  1  0  0  0  0
 16 18  1  0  0  0  0
 15 19  1  0  0  0  0
 19 20  2  0  0  0  0
 19 21  1  0  0  0  0
 21 22  1  0  0  0  0
 22 23  1  0  0  0  0
 23 24  1  0  0  0  0
 24 25  4  0  0  0  0
 25 26  4  0  0  0  0
 26 27  4  0  0  0  0
 27 28  4  0  0  0  0
 28 29  4  0  0  0  0
 24 29  4  0  0  0  0
 22 30  1  0  0  0  0
 30 31  1  0  0  0  0
 31 32  1  0  0  0  0
 32 33  1  0  0  0  0
 33 34  1  0  0  0  0
 34 35  4  0  0  0  0
 35 36  4  0  0  0  0
 36 37  4  0  0  0  0
 37 38  4  0  0  0  0
 38 39  4  0  0  0  0
 34 39  4  0  0  0  0
 32 40  1  0  0  0  0
 40 41  1  0  0  0  0
 41 42  2  0  0  0  0
 41 43  1  0  0  0  0
 43 44  1  0  0  0  0
 44 45  1  0  0  0  0
 45 46  4  0  0  0  0
 46 47  4  0  0  0  0
 47 48  4  0  0  0  0
 48 49  4  0  0  0  0
 45 49  4  0  0  0  0
 31 50  1  0  0  0  0
M  END
>  <MOL_ID>
112
>  <Name_of_compounds>
Ritonavir
>  <Activity_Profiles>
0 0 0 0 0
>  <INITIAL_ID>
2099

>  <SUM_activity>
0

$$$$

  Marvin  08130811232D          

 16 17  0  0  0  0            999 V2000
   -1.2444    6.5391    0.0000 C   0  0  0  0  0  0  0  0  0  0  0  0
   -1.9589    6.1266    0.0000 C   0  0  0  0  0  0  0  0  0  0  0  0
   -1.9589    5.3016    0.0000 C   0  0  0  0  0  0  0  0  0  0  0  0
   -2.6733    4.8891    0.0000 N   0  0  0  0  0  0  0  0  0  0  0  0
   -3.3878    5.3016    0.0000 C   0  0  0  0  0  0  0  0  0  0  0  0
   -4.1023    4.8891    0.0000 O   0  0  0  0  0  0  0  0  0  0  0  0
   -3.3878    6.1266    0.0000 N   0  0  0  0  0  0  0  0  0  0  0  0
   -2.6733    6.5391    0.0000 C   0  0  0  0  0  0  0  0  0  0  0  0
   -2.6733    7.3641    0.0000 O   0  0  0  0  0  0  0  0  0  0  0  0
   -2.6733    4.0641    0.0000 C   0  0  0  0  0  0  0  0  0  0  0  0
   -2.0059    3.5792    0.0000 C   0  0  0  0  0  0  0  0  0  0  0  0
   -2.2608    2.7946    0.0000 C   0  0  0  0  0  0  0  0  0  0  0  0
   -3.0858    2.7946    0.0000 C   0  0  0  0  0  0  0  0  0  0  0  0
   -3.3408    3.5792    0.0000 O   0  0  0  0  0  0  0  0  0  0  0  0
   -3.5707    2.1271    0.0000 C   0  0  0  0  0  0  0  0  0  0  0  0
   -4.3912    2.2134    0.0000 O   0  0  0  0  0  0  0  0  0  0  0  0
  1  2  1  0  0  0  0
  2  3  2  0  0  0  0
  3  4  1  0  0  0  0
  4  5  1  0  0  0  0
  5  6  2  0  0  0  0
  5  7  1  0  0  0  0
  7  8  1  0  0  0  0
  2  8  1  0  0  0  0
  8  9  2  0  0  0  0
  4 10  1  0  0  0  0
 10 11  1  0  0  0  0
 11 12  2  0  0  0  0
 12 13  1  0  0  0  0
 13 14  1  0  0  0  0
 10 14  1  0  0  0  0
 13 15  1  0  0  0  0
 15 16  1  0  0  0  0
M  END
>  <MOL_ID>
111
>  <Name_of_compounds>
Stavudine
>  <Activity_Profiles>
0 0 0 0 0
>  <INITIAL_ID>
2098

>  <SUM_activity>
0

$$$$

  Marvin  08130811232D          

 24 26  0  0  0  0            999 V2000
    3.2151   -0.7219    0.0000 C   0  0  0  0  0  0  0  0  0  0  0  0
    3.2151   -1.5469    0.0000 C   0  0  0  0  0  0  0  0  0  0  0  0
    3.9296   -1.9594    0.0000 N   0  0  0  0  0  0  0  0  0  0  0  0
    3.9296   -2.7844    0.0000 C   0  0  0  0  0  0  0  0  0  0  0  0
    3.2151   -3.1969    0.0000 C   0  0  0  0  0  0  0  0  0  0  0  0
    2.5007   -2.7844    0.0000 C   0  0  0  0  0  0  0  0  0  0  0  0
    2.5007   -1.9594    0.0000 C   0  0  0  0  0  0  0  0  0  0  0  0
    3.2151   -4.0219    0.0000 C   0  0  0  0  0  0  0  0  0  0  0  0
    3.9296   -4.4344    0.0000 N   0  0  0  0  0  0  0  0  0  0  0  0
    3.9296   -5.2594    0.0000 C   0  0  0  0  0  0  0  0  0  0  0  0
    3.2151   -5.6719    0.0000 C   0  0  0  0  0  0  0  0  0  0  0  0
    2.5007   -5.2594    0.0000 C   0  0  0  0  0  0  0  0  0  0  0  0
    2.5007   -4.4344    0.0000 C   0  0  0  0  0  0  0  0  0  0  0  0
    1.7862   -4.0219    0.0000 C   0  0  0  0  0  0  0  0  0  0  0  0
    1.0717   -4.4344    0.0000 C   0  0  0  0  0  0  0  0  0  0  0  0
    0.3572   -4.0219    0.0000 C   0  0  0  0  0  0  0  0  0  0  0  0
    0.3572   -3.1969    0.0000 C   0  0  0  0  0  0  0  0  0  0  0  0
    1.0717   -2.7844    0.0000 C   0  0  0  0  0  0  0  0  0  0  0  0
    1.7862   -3.1969    0.0000 C   0  0  0  0  0  0  0  0  0  0  0  0
   -0.3572   -2.7844    0.0000 S   0  0  0  0  0  0  0  0  0  0  0  0
    0.0553   -2.0699    0.0000 O   0  0  0  0  0  0  0  0  0  0  0  0
   -1.0717   -2.3719    0.0000 O   0  0  0  0  0  0  0  0  0  0  0  0
   -0.7697   -3.4988    0.0000 C   0  0  0  0  0  0  0  0  0  0  0  0
    3.2151   -6.4969    0.0000 Cl  0  0  0  0  0  0  0  0  0  0  0  0
  1  2  1  0  0  0  0
  2  3  4  0  0  0  0
  3  4  4  0  0  0  0
  4  5  4  0  0  0  0
  5  6  4  0  0  0  0
  6  7  4  0  0  0  0
  2  7  4  0  0  0  0
  5  8  1  0  0  0  0
  8  9  4  0  0  0  0
  9 10  4  0  0  0  0
 10 11  4  0  0  0  0
 11 12  4  0  0  0  0
 12 13  4  0  0  0  0
  8 13  4  0  0  0  0
 13 14  1  0  0  0  0
 14 15  4  0  0  0  0
 15 16  4  0  0  0  0
 16 17  4  0  0  0  0
 17 18  4  0  0  0  0
 18 19  4  0  0  0  0
 14 19  4  0  0  0  0
 17 20  1  0  0  0  0
 20 21  2  0  0  0  0
 20 22  2  0  0  0  0
 20 23  1  0  0  0  0
 11 24  1  0  0  0  0
M  END
>  <MOL_ID>
97
>  <Name_of_compounds>
ETORICOXIB
>  <Activity_Profiles>
0 0 0 0 0
>  <INITIAL_ID>
1789

>  <SUM_activity>
0

$$$$

  Marvin  08130811232D          

 26 28  0  0  0  0            999 V2000
   -0.7665    1.7215    0.0000 C   0  0  0  0  0  0  0  0  0  0  0  0
   -0.7665    0.8965    0.0000 C   0  0  0  0  0  0  0  0  0  0  0  0
   -0.0520    0.4840    0.0000 C   0  0  0  0  0  0  0  0  0  0  0  0
   -0.0520   -0.3410    0.0000 C   0  0  0  0  0  0  0  0  0  0  0  0
   -0.7665   -0.7535    0.0000 C   0  0  0  0  0  0  0  0  0  0  0  0
   -1.4810   -0.3410    0.0000 C   0  0  0  0  0  0  0  0  0  0  0  0
   -1.4810    0.4840    0.0000 C   0  0  0  0  0  0  0  0  0  0  0  0
   -0.7665   -1.5785    0.0000 C   0  0  0  0  0  0  0  0  0  0  0  0
   -0.0991   -2.0634    0.0000 C   0  0  0  0  0  0  0  0  0  0  0  0
   -0.3540   -2.8480    0.0000 C   0  0  0  0  0  0  0  0  0  0  0  0
   -1.1790   -2.8480    0.0000 N   0  0  0  0  0  0  0  0  0  0  0  0
   -1.4339   -2.0634    0.0000 N   0  0  0  0  0  0  0  0  0  0  0  0
   -2.2186   -1.8085    0.0000 C   0  0  0  0  0  0  0  0  0  0  0  0
   -2.8317   -2.3605    0.0000 C   0  0  0  0  0  0  0  0  0  0  0  0
   -3.6163   -2.1056    0.0000 C   0  0  0  0  0  0  0  0  0  0  0  0
   -3.7878   -1.2986    0.0000 C   0  0  0  0  0  0  0  0  0  0  0  0
   -3.1747   -0.7466    0.0000 C   0  0  0  0  0  0  0  0  0  0  0  0
   -2.3901   -1.0015    0.0000 C   0  0  0  0  0  0  0  0  0  0  0  0
   -4.5724   -1.0436    0.0000 S   0  0  0  0  0  0  0  0  0  0  0  0
   -4.3175   -0.2590    0.0000 O   0  0  0  0  0  0  0  0  0  0  0  0
   -5.3570   -0.7887    0.0000 O   0  0  0  0  0  0  0  0  0  0  0  0
   -4.8274   -1.8283    0.0000 N   0  0  0  0  0  0  0  0  0  0  0  0
    0.1309   -3.5155    0.0000 C   0  0  0  0  0  0  0  0  0  0  0  0
   -0.5365   -4.0004    0.0000 F   0  0  0  0  0  0  0  0  0  0  0  0
    0.6158   -4.1829    0.0000 F   0  0  0  0  0  0  0  0  0  0  0  0
    0.7984   -3.0305    0.0000 F   0  0  0  0  0  0  0  0  0  0  0  0
  1  2  1  0  0  0  0
  2  3  4  0  0  0  0
  3  4  4  0  0  0  0
  4  5  4  0  0  0  0
  5  6  4  0  0  0  0
  6  7  4  0  0  0  0
  2  7  4  0  0  0  0
  5  8  1  0  0  0  0
  8  9  4  0  0  0  0
  9 10  4  0  0  0  0
 10 11  4  0  0  0  0
 11 12  4  0  0  0  0
  8 12  4  0  0  0  0
 12 13  1  0  0  0  0
 13 14  4  0  0  0  0
 14 15  4  0  0  0  0
 15 16  4  0  0  0  0
 16 17  4  0  0  0  0
 17 18  4  0  0  0  0
 13 18  4  0  0  0  0
 16 19  1  0  0  0  0
 19 20  2  0  0  0  0
 19 21  2  0  0  0  0
 19 22  1  0  0  0  0
 10 23  1  0  0  0  0
 23 24  1  0  0  0  0
 23 25  1  0  0  0  0
 23 26  1  0  0  0  0
M  END
>  <MOL_ID>
96
>  <Name_of_compounds>
CELECOXIB
>  <Activity_Profiles>
0 0 0 0 0
>  <INITIAL_ID>
1788

>  <SUM_activity>
0

$$$$

  Marvin  08130811232D          

 26 28  0  0  0  0            999 V2000
    9.5047   -0.0503    0.0000 C   0  0  0  0  0  0  0  0  0  0  0  0
   10.2191    0.3622    0.0000 C   0  0  0  0  0  0  0  0  0  0  0  0
   10.9336   -0.0503    0.0000 C   0  0  0  0  0  0  0  0  0  0  0  0
   10.9336   -0.8753    0.0000 O   0  0  0  0  0  0  0  0  0  0  0  0
   11.6481    0.3622    0.0000 N   0  0  0  0  0  0  0  0  0  0  0  0
   12.3625   -0.0503    0.0000 S   0  0  0  0  0  0  0  0  0  0  0  0
   11.9500   -0.7648    0.0000 O   0  0  0  0  0  0  0  0  0  0  0  0
   12.7750    0.6642    0.0000 O   0  0  0  0  0  0  0  0  0  0  0  0
   13.0770   -0.4628    0.0000 C   0  0  0  0  0  0  0  0  0  0  0  0
   13.7915   -0.0503    0.0000 C   0  0  0  0  0  0  0  0  0  0  0  0
   14.5060   -0.4628    0.0000 C   0  0  0  0  0  0  0  0  0  0  0  0
   14.5060   -1.2878    0.0000 C   0  0  0  0  0  0  0  0  0  0  0  0
   13.7915   -1.7003    0.0000 C   0  0  0  0  0  0  0  0  0  0  0  0
   13.0770   -1.2878    0.0000 C   0  0  0  0  0  0  0  0  0  0  0  0
   15.2204   -1.7003    0.0000 C   0  0  0  0  0  0  0  0  0  0  0  0
   15.9741   -1.3647    0.0000 C   0  0  0  0  0  0  0  0  0  0  0  0
   16.5261   -1.9778    0.0000 O   0  0  0  0  0  0  0  0  0  0  0  0
   16.1136   -2.6923    0.0000 N   0  0  0  0  0  0  0  0  0  0  0  0
   15.3067   -2.5208    0.0000 C   0  0  0  0  0  0  0  0  0  0  0  0
   14.6936   -3.0728    0.0000 C   0  0  0  0  0  0  0  0  0  0  0  0
   14.8651   -3.8798    0.0000 C   0  0  0  0  0  0  0  0  0  0  0  0
   14.2520   -4.4318    0.0000 C   0  0  0  0  0  0  0  0  0  0  0  0
   13.4674   -4.1769    0.0000 C   0  0  0  0  0  0  0  0  0  0  0  0
   13.2959   -3.3699    0.0000 C   0  0  0  0  0  0  0  0  0  0  0  0
   13.9089   -2.8179    0.0000 C   0  0  0  0  0  0  0  0  0  0  0  0
   16.1456   -0.5578    0.0000 C   0  0  0  0  0  0  0  0  0  0  0  0
  1  2  1  0  0  0  0
  2  3  1  0  0  0  0
  3  4  2  0  0  0  0
  3  5  1  0  0  0  0
  5  6  1  0  0  0  0
  6  7  2  0  0  0  0
  6  8  2  0  0  0  0
  6  9  1  0  0  0  0
  9 10  4  0  0  0  0
 10 11  4  0  0  0  0
 11 12  4  0  0  0  0
 12 13  4  0  0  0  0
 13 14  4  0  0  0  0
  9 14  4  0  0  0  0
 12 15  1  0  0  0  0
 15 16  4  0  0  0  0
 16 17  4  0  0  0  0
 17 18  4  0  0  0  0
 18 19  4  0  0  0  0
 15 19  4  0  0  0  0
 19 20  1  0  0  0  0
 20 21  4  0  0  0  0
 21 22  4  0  0  0  0
 22 23  4  0  0  0  0
 23 24  4  0  0  0  0
 24 25  4  0  0  0  0
 20 25  4  0  0  0  0
 16 26  1  0  0  0  0
M  END
>  <MOL_ID>
98
>  <Name_of_compounds>
PARECOXIB
>  <Activity_Profiles>
0 0 0 0 0
>  <INITIAL_ID>
1790

>  <SUM_activity>
0

$$$$

  Marvin  08130811232D          

 23 25  0  0  0  0            999 V2000
   -3.7408    3.0380    0.0000 C   0  0  0  0  0  0  0  0  0  0  0  0
   -3.4053    2.2843    0.0000 C   0  0  0  0  0  0  0  0  0  0  0  0
   -3.8178    1.5698    0.0000 C   0  0  0  0  0  0  0  0  0  0  0  0
   -3.2657    0.9567    0.0000 N   0  0  0  0  0  0  0  0  0  0  0  0
   -2.5121    1.2923    0.0000 C   0  0  0  0  0  0  0  0  0  0  0  0
   -2.5983    2.1128    0.0000 S   0  0  0  0  0  0  0  0  0  0  0  0
   -1.7976    0.8798    0.0000 N   0  0  0  0  0  0  0  0  0  0  0  0
   -1.0831    1.2923    0.0000 C   0  0  0  0  0  0  0  0  0  0  0  0
   -0.3686    0.8798    0.0000 C   0  0  0  0  0  0  0  0  0  0  0  0
    0.3458    1.2923    0.0000 C   0  0  0  0  0  0  0  0  0  0  0  0
    0.3458    2.1173    0.0000 O   0  0  0  0  0  0  0  0  0  0  0  0
    1.0603    0.8798    0.0000 C   0  0  0  0  0  0  0  0  0  0  0  0
    1.7748    1.2923    0.0000 C   0  0  0  0  0  0  0  0  0  0  0  0
    2.4892    0.8798    0.0000 C   0  0  0  0  0  0  0  0  0  0  0  0
    2.4892    0.0548    0.0000 C   0  0  0  0  0  0  0  0  0  0  0  0
    1.7748   -0.3577    0.0000 C   0  0  0  0  0  0  0  0  0  0  0  0
    1.0603    0.0548    0.0000 C   0  0  0  0  0  0  0  0  0  0  0  0
    0.3458   -0.3577    0.0000 S   0  0  0  0  0  0  0  0  0  0  0  0
    0.8761   -0.9897    0.0000 O   0  0  0  0  0  0  0  0  0  0  0  0
   -0.1845   -0.9897    0.0000 O   0  0  0  0  0  0  0  0  0  0  0  0
   -0.3686    0.0548    0.0000 N   0  0  0  0  0  0  0  0  0  0  0  0
   -1.0831   -0.3577    0.0000 C   0  0  0  0  0  0  0  0  0  0  0  0
   -1.4187    0.5386    0.0000 O   0  0  0  0  0  0  0  0  0  0  0  0
  1  2  1  0  0  0  0
  2  3  4  0  0  0  0
  3  4  4  0  0  0  0
  4  5  4  0  0  0  0
  5  6  4  0  0  0  0
  2  6  4  0  0  0  0
  5  7  1  0  0  0  0
  7  8  1  0  0  0  0
  8  9  2  0  0  0  0
  9 10  1  0  0  0  0
 10 11  2  0  0  0  0
 10 12  1  0  0  0  0
 12 13  4  0  0  0  0
 13 14  4  0  0  0  0
 14 15  4  0  0  0  0
 15 16  4  0  0  0  0
 16 17  4  0  0  0  0
 12 17  4  0  0  0  0
 17 18  1  0  0  0  0
 18 19  2  0  0  0  0
 18 20  2  0  0  0  0
 18 21  1  0  0  0  0
  9 21  1  0  0  0  0
 21 22  1  0  0  0  0
  8 23  1  4  0  0  0
M  END
>  <MOL_ID>
94
>  <Name_of_compounds>
Meloxicam
>  <Activity_Profiles>
0 0 0 0 0
>  <INITIAL_ID>
1786

>  <SUM_activity>
0

$$$$

  Marvin  08130811232D          

 19 21  0  0  0  0            999 V2000
   -0.0386   -2.2446    0.0000 C   0  0  0  0  0  0  0  0  0  0  0  0
    0.4463   -2.9120    0.0000 C   0  0  0  0  0  0  0  0  0  0  0  0
    1.2309   -2.6571    0.0000 N   0  0  0  0  0  0  0  0  0  0  0  0
    1.2309   -1.8321    0.0000 C   0  0  0  0  0  0  0  0  0  0  0  0
    2.0155   -1.5771    0.0000 C   0  0  0  0  0  0  0  0  0  0  0  0
    2.5005   -2.2446    0.0000 C   0  0  0  0  0  0  0  0  0  0  0  0
    2.0155   -2.9120    0.0000 C   0  0  0  0  0  0  0  0  0  0  0  0
    2.2705   -3.6966    0.0000 C   0  0  0  0  0  0  0  0  0  0  0  0
    1.7185   -4.3097    0.0000 O   0  0  0  0  0  0  0  0  0  0  0  0
    3.0775   -3.8682    0.0000 C   0  0  0  0  0  0  0  0  0  0  0  0
    3.6295   -3.2551    0.0000 C   0  0  0  0  0  0  0  0  0  0  0  0
    4.4365   -3.4266    0.0000 C   0  0  0  0  0  0  0  0  0  0  0  0
    4.6914   -4.2112    0.0000 C   0  0  0  0  0  0  0  0  0  0  0  0
    4.1394   -4.8243    0.0000 C   0  0  0  0  0  0  0  0  0  0  0  0
    3.3324   -4.6528    0.0000 C   0  0  0  0  0  0  0  0  0  0  0  0
    0.4463   -1.5771    0.0000 C   0  0  0  0  0  0  0  0  0  0  0  0
    0.1914   -0.7925    0.0000 C   0  0  0  0  0  0  0  0  0  0  0  0
   -0.6156   -0.6210    0.0000 O   0  0  0  0  0  0  0  0  0  0  0  0
    0.7434   -0.1794    0.0000 O   0  0  0  0  0  0  0  0  0  0  0  0
  1  2  1  0  0  0  0
  2  3  1  0  0  0  0
  3  4  4  0  0  0  0
  4  5  4  0  0  0  0
  5  6  4  0  0  0  0
  6  7  4  0  0  0  0
  3  7  4  0  0  0  0
  7  8  1  0  0  0  0
  8  9  2  0  0  0  0
  8 10  1  0  0  0  0
 10 11  4  0  0  0  0
 11 12  4  0  0  0  0
 12 13  4  0  0  0  0
 13 14  4  0  0  0  0
 14 15  4  0  0  0  0
 10 15  4  0  0  0  0
  4 16  1  0  0  0  0
  1 16  1  0  0  0  0
 16 17  1  0  0  0  0
 17 18  2  0  0  0  0
 17 19  1  0  0  0  0
M  END
>  <MOL_ID>
93
>  <Name_of_compounds>
Ketorolac
>  <Activity_Profiles>
0 0 0 0 0
>  <INITIAL_ID>
1785

>  <SUM_activity>
0

$$$$

  Marvin  08130811232D          

 17 18  0  0  0  0            999 V2000
   -1.4289   -2.7176    0.0000 C   0  0  0  0  0  0  0  0  0  0  0  0
   -1.4289   -1.8926    0.0000 C   0  0  0  0  0  0  0  0  0  0  0  0
   -0.7145   -1.4801    0.0000 C   0  0  0  0  0  0  0  0  0  0  0  0
    0.0000   -1.8926    0.0000 C   0  0  0  0  0  0  0  0  0  0  0  0
    0.7145   -1.4801    0.0000 C   0  0  0  0  0  0  0  0  0  0  0  0
    0.7145   -0.6551    0.0000 C   0  0  0  0  0  0  0  0  0  0  0  0
    0.0000   -0.2426    0.0000 C   0  0  0  0  0  0  0  0  0  0  0  0
   -0.7145   -0.6551    0.0000 C   0  0  0  0  0  0  0  0  0  0  0  0
    1.4289   -0.2426    0.0000 C   0  0  0  0  0  0  0  0  0  0  0  0
    2.1434   -0.6551    0.0000 C   0  0  0  0  0  0  0  0  0  0  0  0
    2.1434   -1.4801    0.0000 C   0  0  0  0  0  0  0  0  0  0  0  0
    1.4289   -1.8926    0.0000 C   0  0  0  0  0  0  0  0  0  0  0  0
    2.8579   -0.2426    0.0000 O   0  0  0  0  0  0  0  0  0  0  0  0
    3.5724   -0.6551    0.0000 C   0  0  0  0  0  0  0  0  0  0  0  0
   -2.1434   -1.4801    0.0000 C   0  0  0  0  0  0  0  0  0  0  0  0
   -2.8579   -1.8926    0.0000 O   0  0  0  0  0  0  0  0  0  0  0  0
   -2.1434   -0.6551    0.0000 O   0  0  0  0  0  0  0  0  0  0  0  0
  1  2  1  0  0  0  0
  2  3  1  0  0  0  0
  3  4  4  0  0  0  0
  4  5  4  0  0  0  0
  5  6  4  0  0  0  0
  6  7  4  0  0  0  0
  7  8  4  0  0  0  0
  3  8  4  0  0  0  0
  6  9  4  0  0  0  0
  9 10  4  0  0  0  0
 10 11  4  0  0  0  0
 11 12  4  0  0  0  0
  5 12  4  0  0  0  0
 10 13  1  0  0  0  0
 13 14  1  0  0  0  0
  2 15  1  0  0  0  0
 15 16  2  0  0  0  0
 15 17  1  0  0  0  0
M  END
>  <MOL_ID>
95
>  <Name_of_compounds>
Naproxen
>  <Activity_Profiles>
0 0 0 0 0
>  <INITIAL_ID>
1787

>  <SUM_activity>
0

$$$$

  Marvin  08130811232D          

 49 61  0  0  0  0            999 V2000
   11.0627   14.6821    0.0000 C   0  0  0  0  0  0  0  0  0  0  0  0
   11.7928   14.2980    0.0000 C   0  0  0  0  0  0  0  0  0  0  0  0
   11.0952   13.8577    0.0000 C   0  0  0  0  0  0  0  0  0  0  0  0
   10.7111   13.1276    0.0000 C   0  0  0  0  0  0  0  0  0  0  0  0
   11.0916   12.3751    0.0000 C   0  0  0  0  0  0  0  0  0  0  0  0
   10.7098   11.5829    0.0000 C   0  0  0  0  0  0  0  0  0  0  0  0
    9.8540   11.2713    0.0000 C   0  0  0  0  0  0  0  0  0  0  0  0
    9.7494   10.4525    0.0000 C   0  0  0  0  0  0  0  0  0  0  0  0
   10.4302    9.9587    0.0000 C   0  0  0  0  0  0  0  0  0  0  0  0
   11.2013   10.2775    0.0000 C   0  0  0  0  0  0  0  0  0  0  0  0
   11.3544   11.0828    0.0000 C   0  0  0  0  0  0  0  0  0  0  0  0
   10.3334    9.1394    0.0000 O   0  0  0  0  0  0  0  0  0  0  0  0
    8.9182   10.2957    0.0000 O   0  0  0  0  0  0  0  0  0  0  0  0
    8.4822   11.0148    0.0000 C   0  0  0  0  0  0  0  0  0  0  0  0
    9.0019   11.6369    0.0000 C   0  0  0  0  0  0  0  0  0  0  0  0
    9.5234   12.2028    0.0000 C   0  0  0  0  0  0  0  0  0  0  0  0
    9.2406   13.1776    0.0000 C   0  0  0  0  0  0  0  0  0  0  0  0
    9.8337   13.0092    0.0000 N   0  0  0  0  0  0  0  0  0  0  0  0
    9.0902   12.1094    0.0000 C   0  0  0  0  0  0  0  0  0  0  0  0
    8.4797   12.4977    0.0000 C   0  0  0  0  0  0  0  0  0  0  0  0
    7.7203   12.6750    0.0000 C   0  0  0  0  0  0  0  0  0  0  0  0
    7.4361   11.9670    0.0000 C   0  0  0  0  0  0  0  0  0  0  0  0
    7.6969   11.1843    0.0000 C   0  0  0  0  0  0  0  0  0  0  0  0
    7.0331   10.6944    0.0000 N   0  0  0  0  0  0  0  0  0  0  0  0
    6.3620   11.1743    0.0000 C   0  0  0  0  0  0  0  0  0  0  0  0
    6.6111   11.9608    0.0000 C   0  0  0  0  0  0  0  0  0  0  0  0
    6.2562   12.6278    0.0000 C   0  0  0  0  0  0  0  0  0  0  0  0
    5.3735   12.4567    0.0000 C   0  0  0  0  0  0  0  0  0  0  0  0
    4.9110   13.3456    0.0000 C   0  0  0  0  0  0  0  0  0  0  0  0
    4.3532   13.5630    0.0000 N   0  0  0  0  0  0  0  0  0  0  0  0
    5.3166   13.6887    0.0000 C   0  0  0  0  0  0  0  0  0  0  0  0
    5.7159   12.8100    0.0000 C   0  0  0  0  0  0  0  0  0  0  0  0
    5.1161   11.8808    0.0000 C   0  0  0  0  0  0  0  0  0  0  0  0
    5.5781   11.1220    0.0000 C   0  0  0  0  0  0  0  0  0  0  0  0
    5.2713   10.3499    0.0000 O   0  0  0  0  0  0  0  0  0  0  0  0
    4.4732   10.5058    0.0000 C   0  0  0  0  0  0  0  0  0  0  0  0
    3.8637    9.9237    0.0000 C   0  0  0  0  0  0  0  0  0  0  0  0
    3.0843   10.1910    0.0000 C   0  0  0  0  0  0  0  0  0  0  0  0
    2.9372   11.0155    0.0000 C   0  0  0  0  0  0  0  0  0  0  0  0
    3.5557   11.6204    0.0000 C   0  0  0  0  0  0  0  0  0  0  0  0
    4.3592   11.3692    0.0000 C   0  0  0  0  0  0  0  0  0  0  0  0
    3.2371   12.4169    0.0000 C   0  0  0  0  0  0  0  0  0  0  0  0
    3.5386   13.2187    0.0000 C   0  0  0  0  0  0  0  0  0  0  0  0
    2.9437   13.7903    0.0000 C   0  0  0  0  0  0  0  0  0  0  0  0
    2.1427   13.9878    0.0000 C   0  0  0  0  0  0  0  0  0  0  0  0
    2.7142   14.5827    0.0000 C   0  0  0  0  0  0  0  0  0  0  0  0
    4.0406    9.1179    0.0000 O   0  0  0  0  0  0  0  0  0  0  0  0
    4.5489   12.4321    0.0000 O   0  0  0  0  0  0  0  0  0  0  0  0
    8.7995   13.2582    0.0000 O   0  0  0  0  0  0  0  0  0  0  0  0
  1  2  1  0  0  0  0
  2  3  1  0  0  0  0
  1  3  1  0  0  0  0
  3  4  1  0  0  0  0
  4  5  1  0  0  0  0
  5  6  1  0  0  0  0
  6  7  4  0  0  0  0
  7  8  4  0  0  0  0
  8  9  4  0  0  0  0
  9 10  4  0  0  0  0
 10 11  4  0  0  0  0
  6 11  4  0  0  0  0
  9 12  1  0  0  0  0
  8 13  1  0  0  0  0
 13 14  1  0  0  0  0
 14 15  1  0  0  0  0
  7 15  1  0  0  0  0
 15 16  1  0  0  0  0
 16 17  1  0  0  0  0
 17 18  1  0  0  0  0
  4 18  1  0  0  0  0
 18 19  1  0  0  0  0
 19 20  1  0  0  0  0
 15 20  1  0  0  0  0
 20 21  1  0  0  0  0
 21 22  1  0  0  0  0
 22 23  4  0  0  0  0
 14 23  1  0  0  0  0
 23 24  4  0  0  0  0
 24 25  4  0  0  0  0
 25 26  4  0  0  0  0
 22 26  4  0  0  0  0
 26 27  1  0  0  0  0
 27 28  1  0  0  0  0
 28 29  1  0  0  0  0
 29 30  1  0  0  0  0
 30 31  1  0  0  0  0
 31 32  1  0  0  0  0
 32 33  1  0  0  0  0
 28 33  1  0  0  0  0
 33 34  1  0  0  0  0
 25 34  1  0  0  0  0
 34 35  1  0  0  0  0
 35 36  1  0  0  0  0
 36 37  4  0  0  0  0
 37 38  4  0  0  0  0
 38 39  4  0  0  0  0
 39 40  4  0  0  0  0
 40 41  4  0  0  0  0
 33 41  1  0  0  0  0
 36 41  4  0  0  0  0
 40 42  1  0  0  0  0
 42 43  1  0  0  0  0
 30 43  1  0  0  0  0
 43 44  1  0  0  0  0
 44 45  1  0  0  0  0
 45 46  1  0  0  0  0
 44 46  1  0  0  0  0
 37 47  1  0  0  0  0
 28 48  1  0  0  0  0
 20 49  1  0  0  0  0
M  STY  1   1 DAT
M  SAL   1  1  24
M  SDT   1 MRV_IMPLICIT_H                                        
M  SDD   1     0.0000    0.0000    DR    ALL  0       0  
M  SED   1 IMPL_H1
M  END
>  <MOL_ID>
103
>  <Name_of_compounds>
nor-BNI
>  <Activity_Profiles>
0 0 0 0 0
>  <INITIAL_ID>
1854

>  <SUM_activity>
0

$$$$

  Marvin  08130811232D          

 22 25  0  0  0  0            999 V2000
    7.2499   -3.3005    0.0000 C   0  0  0  0  0  0  0  0  0  0  0  0
    6.6783   -3.8953    0.0000 C   0  0  0  0  0  0  0  0  0  0  0  0
    6.9586   -3.1194    0.0000 C   0  0  0  0  0  0  0  0  0  0  0  0
    6.3073   -2.6130    0.0000 C   0  0  0  0  0  0  0  0  0  0  0  0
    5.6244   -3.0760    0.0000 C   0  0  0  0  0  0  0  0  0  0  0  0
    5.8537   -3.8685    0.0000 C   0  0  0  0  0  0  0  0  0  0  0  0
    5.0928   -4.1874    0.0000 O   0  0  0  0  0  0  0  0  0  0  0  0
    5.7323   -4.6845    0.0000 C   0  0  0  0  0  0  0  0  0  0  0  0
    5.6109   -5.5005    0.0000 C   0  0  0  0  0  0  0  0  0  0  0  0
    7.7707   -2.9742    0.0000 C   0  0  0  0  0  0  0  0  0  0  0  0
    8.0510   -2.1982    0.0000 C   0  0  0  0  0  0  0  0  0  0  0  0
    8.8631   -2.0530    0.0000 C   0  0  0  0  0  0  0  0  0  0  0  0
    9.3949   -2.6837    0.0000 C   0  0  0  0  0  0  0  0  0  0  0  0
   10.2071   -2.5385    0.0000 C   0  0  0  0  0  0  0  0  0  0  0  0
   10.7389   -3.1692    0.0000 C   0  0  0  0  0  0  0  0  0  0  0  0
   11.5510   -3.0240    0.0000 O   0  0  0  0  0  0  0  0  0  0  0  0
   10.4586   -3.9451    0.0000 C   0  0  0  0  0  0  0  0  0  0  0  0
    9.6465   -4.0904    0.0000 C   0  0  0  0  0  0  0  0  0  0  0  0
    9.1146   -3.4597    0.0000 C   0  0  0  0  0  0  0  0  0  0  0  0
    8.3025   -3.6049    0.0000 C   0  0  0  0  0  0  0  0  0  0  0  0
    8.0222   -4.3808    0.0000 C   0  0  0  0  0  0  0  0  0  0  0  0
    7.2101   -4.5260    0.0000 C   0  0  0  0  0  0  0  0  0  0  0  0
  1  2  1  0  0  0  0
  2  3  1  0  0  0  0
  3  4  1  0  0  0  0
  4  5  1  0  0  0  0
  5  6  1  0  0  0  0
  2  6  1  0  0  0  0
  6  7  1  0  0  0  0
  6  8  1  0  0  0  0
  8  9  3  0  0  0  0
  3 10  1  0  0  0  0
 10 11  1  0  0  0  0
 11 12  1  0  0  0  0
 12 13  1  0  0  0  0
 13 14  4  0  0  0  0
 14 15  4  0  0  0  0
 15 16  1  0  0  0  0
 15 17  4  0  0  0  0
 17 18  4  0  0  0  0
 18 19  4  0  0  0  0
 13 19  4  0  0  0  0
 19 20  1  0  0  0  0
 10 20  1  0  0  0  0
 20 21  1  0  0  0  0
 21 22  1  0  0  0  0
  2 22  1  0  0  0  0
M  END
>  <MOL_ID>
107
>  <Name_of_compounds>
17alpha ethynyl estradiol
>  <Activity_Profiles>
0 0 0 0 0
>  <INITIAL_ID>
2022

>  <SUM_activity>
0

$$$$

  Marvin  08130811232D          

 34 37  0  0  1  0            999 V2000
   -0.1433   -0.6676    0.0000 O   0  0  0  0  0  0  0  0  0  0  0  0
    0.5712   -0.2551    0.0000 C   0  0  0  0  0  0  0  0  0  0  0  0
    1.2857   -0.6676    0.0000 C   0  0  2  0  0  0  0  0  0  0  0  0
    1.2857   -1.4926    0.0000 N   0  0  0  0  0  0  0  0  0  0  0  0
    2.0001   -1.9051    0.0000 C   0  0  0  0  0  0  0  0  0  0  0  0
    2.7146   -1.4926    0.0000 C   0  0  0  0  0  0  0  0  0  0  0  0
    2.7146   -0.6676    0.0000 C   0  0  0  0  0  0  0  0  0  0  0  0
    3.4291   -0.2551    0.0000 C   0  0  0  0  0  0  0  0  0  0  0  0
    4.1435   -0.6676    0.0000 C   0  0  0  0  0  0  0  0  0  0  0  0
    4.1435   -1.4926    0.0000 C   0  0  0  0  0  0  0  0  0  0  0  0
    4.8580   -1.9051    0.0000 O   0  0  0  0  0  0  0  0  0  0  0  0
    3.4291   -1.9051    0.0000 C   0  0  0  0  0  0  0  0  0  0  0  0
    2.0001   -0.2551    0.0000 C   0  0  0  0  0  0  0  0  0  0  0  0
    0.5712    0.5699    0.0000 N   0  0  0  0  0  0  0  0  0  0  0  0
    1.2857    0.9824    0.0000 C   0  0  2  0  0  0  0  0  0  0  0  0
    2.0001    0.5699    0.0000 C   0  0  0  0  0  0  0  0  0  0  0  0
    2.7146    0.9824    0.0000 N   0  0  0  0  0  0  0  0  0  0  0  0
    2.7146    1.8074    0.0000 C   0  0  0  0  0  0  0  0  0  0  0  0
    3.4291    2.2199    0.0000 C   0  0  2  0  0  0  0  0  0  0  0  0
    3.4291    3.0449    0.0000 C   0  0  0  0  0  0  0  0  0  0  0  0
    4.1435    1.8074    0.0000 C   0  0  2  0  0  0  0  0  0  0  0  0
    4.4257    2.5826    0.0000 C   0  0  0  0  0  0  0  0  0  0  0  0
    4.9560    1.6641    0.0000 C   0  0  0  0  0  0  0  0  0  0  0  0
    5.4863    2.2961    0.0000 C   0  0  0  0  0  0  0  0  0  0  0  0
    6.2988    2.1528    0.0000 C   0  0  0  0  0  0  0  0  0  0  0  0
    6.5809    1.3776    0.0000 C   0  0  0  0  0  0  0  0  0  0  0  0
    6.0506    0.7456    0.0000 C   0  0  0  0  0  0  0  0  0  0  0  0
    6.3328   -0.0296    0.0000 O   0  0  0  0  0  0  0  0  0  0  0  0
    5.2382    0.8889    0.0000 C   0  0  0  0  0  0  0  0  0  0  0  0
    4.1435    0.9824    0.0000 C   0  0  0  0  0  0  0  0  0  0  0  0
    3.4291    0.5699    0.0000 C   0  0  0  0  0  0  0  0  0  0  0  0
    1.2857    1.8074    0.0000 C   0  0  0  0  0  0  0  0  0  0  0  0
    0.5712    2.2199    0.0000 C   0  0  0  0  0  0  0  0  0  0  0  0
    2.0001    2.2199    0.0000 C   0  0  0  0  0  0  0  0  0  0  0  0
  1  2  2  0  0  0  0
  3  2  1  1  0  0  0
  3  4  1  0  0  0  0
  4  5  1  0  0  0  0
  5  6  1  0  0  0  0
  6  7  4  0  0  0  0
  7  8  4  0  0  0  0
  8  9  4  0  0  0  0
  9 10  4  0  0  0  0
 10 11  1  0  0  0  0
 10 12  4  0  0  0  0
  6 12  4  0  0  0  0
  7 13  1  0  0  0  0
  3 13  1  0  0  0  0
  2 14  1  0  0  0  0
 15 14  1  1  0  0  0
 15 16  1  0  0  0  0
 16 17  1  0  0  0  0
 17 18  1  0  0  0  0
 18 19  1  0  0  0  0
 19 20  1  6  0  0  0
 19 21  1  0  0  0  0
 21 22  1  1  0  0  0
 21 23  1  0  0  0  0
 23 24  4  0  0  0  0
 24 25  4  0  0  0  0
 25 26  4  0  0  0  0
 26 27  4  0  0  0  0
 27 28  1  0  0  0  0
 27 29  4  0  0  0  0
 23 29  4  0  0  0  0
 21 30  1  0  0  0  0
 30 31  1  0  0  0  0
 17 31  1  0  0  0  0
 15 32  1  0  0  0  0
 32 33  1  0  0  0  0
 32 34  1  0  0  0  0
M  END
>  <MOL_ID>
104
>  <Name_of_compounds>
Jdtic
>  <Activity_Profiles>
0 0 0 0 0
>  <INITIAL_ID>
1855

>  <SUM_activity>
0

$$$$

  Marvin  08130811232D          

 22 24  0  0  0  0            999 V2000
    1.8851   -2.0535    0.0000 C   0  0  0  0  0  0  0  0  0  0  0  0
    1.8851   -2.8785    0.0000 C   0  0  0  0  0  0  0  0  0  0  0  0
    2.5526   -3.3634    0.0000 C   0  0  0  0  0  0  0  0  0  0  0  0
    2.2976   -4.1481    0.0000 C   0  0  0  0  0  0  0  0  0  0  0  0
    1.4726   -4.1481    0.0000 N   0  0  0  0  0  0  0  0  0  0  0  0
    1.2177   -3.3634    0.0000 O   0  0  0  0  0  0  0  0  0  0  0  0
    2.7826   -4.8155    0.0000 C   0  0  0  0  0  0  0  0  0  0  0  0
    3.6030   -4.7293    0.0000 C   0  0  0  0  0  0  0  0  0  0  0  0
    4.0880   -5.3967    0.0000 C   0  0  0  0  0  0  0  0  0  0  0  0
    3.7524   -6.1504    0.0000 C   0  0  0  0  0  0  0  0  0  0  0  0
    2.9319   -6.2366    0.0000 C   0  0  0  0  0  0  0  0  0  0  0  0
    2.4470   -5.5692    0.0000 C   0  0  0  0  0  0  0  0  0  0  0  0
    3.3372   -3.1085    0.0000 C   0  0  0  0  0  0  0  0  0  0  0  0
    3.5087   -2.3015    0.0000 C   0  0  0  0  0  0  0  0  0  0  0  0
    4.2933   -2.0466    0.0000 C   0  0  0  0  0  0  0  0  0  0  0  0
    4.9064   -2.5986    0.0000 C   0  0  0  0  0  0  0  0  0  0  0  0
    4.7349   -3.4056    0.0000 C   0  0  0  0  0  0  0  0  0  0  0  0
    3.9503   -3.6605    0.0000 C   0  0  0  0  0  0  0  0  0  0  0  0
    5.6911   -2.3437    0.0000 S   0  0  0  0  0  0  0  0  0  0  0  0
    5.9460   -3.1283    0.0000 O   0  0  0  0  0  0  0  0  0  0  0  0
    6.4757   -2.0887    0.0000 O   0  0  0  0  0  0  0  0  0  0  0  0
    5.4361   -1.5591    0.0000 N   0  0  0  0  0  0  0  0  0  0  0  0
  1  2  1  0  0  0  0
  2  3  4  0  0  0  0
  3  4  4  0  0  0  0
  4  5  4  0  0  0  0
  5  6  4  0  0  0  0
  2  6  4  0  0  0  0
  4  7  1  0  0  0  0
  7  8  4  0  0  0  0
  8  9  4  0  0  0  0
  9 10  4  0  0  0  0
 10 11  4  0  0  0  0
 11 12  4  0  0  0  0
  7 12  4  0  0  0  0
  3 13  1  0  0  0  0
 13 14  4  0  0  0  0
 14 15  4  0  0  0  0
 15 16  4  0  0  0  0
 16 17  4  0  0  0  0
 17 18  4  0  0  0  0
 13 18  4  0  0  0  0
 16 19  1  0  0  0  0
 19 20  2  0  0  0  0
 19 21  2  0  0  0  0
 19 22  1  0  0  0  0
M  END
>  <MOL_ID>
100
>  <Name_of_compounds>
VALDECOXIB
>  <Activity_Profiles>
0 0 0 0 0
>  <INITIAL_ID>
1792

>  <SUM_activity>
0

$$$$

  Marvin  08130811232D          

 22 24  0  0  0  0            999 V2000
    1.8119    2.5136    0.0000 C   0  0  0  0  0  0  0  0  0  0  0  0
    2.6369    2.5136    0.0000 S   0  0  0  0  0  0  0  0  0  0  0  0
    2.6369    3.3386    0.0000 O   0  0  0  0  0  0  0  0  0  0  0  0
    3.4619    2.5136    0.0000 O   0  0  0  0  0  0  0  0  0  0  0  0
    2.6369    1.6886    0.0000 C   0  0  0  0  0  0  0  0  0  0  0  0
    3.3514    1.2761    0.0000 C   0  0  0  0  0  0  0  0  0  0  0  0
    3.3514    0.4511    0.0000 C   0  0  0  0  0  0  0  0  0  0  0  0
    2.6369    0.0386    0.0000 C   0  0  0  0  0  0  0  0  0  0  0  0
    1.9225    0.4511    0.0000 C   0  0  0  0  0  0  0  0  0  0  0  0
    1.9225    1.2761    0.0000 C   0  0  0  0  0  0  0  0  0  0  0  0
    2.6369   -0.7864    0.0000 C   0  0  0  0  0  0  0  0  0  0  0  0
    3.3044   -1.2713    0.0000 C   0  0  0  0  0  0  0  0  0  0  0  0
    3.0494   -2.0560    0.0000 C   0  0  0  0  0  0  0  0  0  0  0  0
    3.5343   -2.7234    0.0000 O   0  0  0  0  0  0  0  0  0  0  0  0
    2.2244   -2.0560    0.0000 O   0  0  0  0  0  0  0  0  0  0  0  0
    1.9695   -1.2713    0.0000 C   0  0  0  0  0  0  0  0  0  0  0  0
    4.0890   -1.0164    0.0000 C   0  0  0  0  0  0  0  0  0  0  0  0
    4.2605   -0.2094    0.0000 C   0  0  0  0  0  0  0  0  0  0  0  0
    5.0451    0.0455    0.0000 C   0  0  0  0  0  0  0  0  0  0  0  0
    5.6582   -0.5065    0.0000 C   0  0  0  0  0  0  0  0  0  0  0  0
    5.4867   -1.3135    0.0000 C   0  0  0  0  0  0  0  0  0  0  0  0
    4.7021   -1.5684    0.0000 C   0  0  0  0  0  0  0  0  0  0  0  0
  1  2  1  0  0  0  0
  2  3  2  0  0  0  0
  2  4  2  0  0  0  0
  2  5  1  0  0  0  0
  5  6  4  0  0  0  0
  6  7  4  0  0  0  0
  7  8  4  0  0  0  0
  8  9  4  0  0  0  0
  9 10  4  0  0  0  0
  5 10  4  0  0  0  0
  8 11  1  0  0  0  0
 11 12  2  0  0  0  0
 12 13  1  0  0  0  0
 13 14  2  0  0  0  0
 13 15  1  0  0  0  0
 15 16  1  0  0  0  0
 11 16  1  0  0  0  0
 12 17  1  0  0  0  0
 17 18  4  0  0  0  0
 18 19  4  0  0  0  0
 19 20  4  0  0  0  0
 20 21  4  0  0  0  0
 21 22  4  0  0  0  0
 17 22  4  0  0  0  0
M  END
>  <MOL_ID>
99
>  <Name_of_compounds>
ROFECOXIB
>  <Activity_Profiles>
0 0 0 0 0
>  <INITIAL_ID>
1791

>  <SUM_activity>
0

$$$$

  Marvin  08130811232D          

 35 38  0  0  0  0            999 V2000
   -0.9106    0.5068    0.0000 O   0  0  0  0  0  0  0  0  0  0  0  0
   -0.3585    1.1199    0.0000 C   0  0  0  0  0  0  0  0  0  0  0  0
   -0.6135    1.9045    0.0000 N   0  0  0  0  0  0  0  0  0  0  0  0
   -0.0614    2.5176    0.0000 C   0  0  0  0  0  0  0  0  0  0  0  0
   -0.3164    3.3023    0.0000 C   0  0  0  0  0  0  0  0  0  0  0  0
    0.2357    3.9154    0.0000 C   0  0  0  0  0  0  0  0  0  0  0  0
    1.0426    3.7438    0.0000 C   0  0  0  0  0  0  0  0  0  0  0  0
    1.5947    4.3569    0.0000 N   0  0  0  0  0  0  0  0  0  0  0  0
    1.3397    5.1415    0.0000 C   0  0  0  0  0  0  0  0  0  0  0  0
    0.5328    5.3131    0.0000 C   0  0  0  0  0  0  0  0  0  0  0  0
    1.8918    5.7546    0.0000 O   0  0  0  0  0  0  0  0  0  0  0  0
    1.2976    2.9592    0.0000 C   0  0  0  0  0  0  0  0  0  0  0  0
    0.7455    2.3461    0.0000 C   0  0  0  0  0  0  0  0  0  0  0  0
    0.4484    0.9484    0.0000 C   0  0  0  0  0  0  0  0  0  0  0  0
    0.7034    0.1638    0.0000 C   0  0  0  0  0  0  0  0  0  0  0  0
    0.2185   -0.5037    0.0000 C   0  0  0  0  0  0  0  0  0  0  0  0
   -0.6065   -0.5037    0.0000 C   0  0  0  0  0  0  0  0  0  0  0  0
    0.7034   -1.1711    0.0000 N   0  0  0  0  0  0  0  0  0  0  0  0
    0.4484   -1.9557    0.0000 C   0  0  0  0  0  0  0  0  0  0  0  0
    1.0005   -2.5688    0.0000 C   0  0  0  0  0  0  0  0  0  0  0  0
    1.8075   -2.3973    0.0000 C   0  0  0  0  0  0  0  0  0  0  0  0
    2.3595   -3.0104    0.0000 C   0  0  0  0  0  0  0  0  0  0  0  0
    2.1045   -3.7950    0.0000 C   0  0  0  0  0  0  0  0  0  0  0  0
    2.6566   -4.4081    0.0000 Cl  0  0  0  0  0  0  0  0  0  0  0  0
    1.2976   -3.9665    0.0000 C   0  0  0  0  0  0  0  0  0  0  0  0
    0.7455   -3.3534    0.0000 C   0  0  0  0  0  0  0  0  0  0  0  0
   -0.3585   -2.1273    0.0000 O   0  0  0  0  0  0  0  0  0  0  0  0
    1.4880   -0.9162    0.0000 C   0  0  0  0  0  0  0  0  0  0  0  0
    1.4880   -0.0912    0.0000 C   0  0  0  0  0  0  0  0  0  0  0  0
    2.2025    0.3213    0.0000 C   0  0  0  0  0  0  0  0  0  0  0  0
    2.9169   -0.0912    0.0000 C   0  0  0  0  0  0  0  0  0  0  0  0
    3.6314    0.3213    0.0000 O   0  0  0  0  0  0  0  0  0  0  0  0
    4.3459   -0.0912    0.0000 C   0  0  0  0  0  0  0  0  0  0  0  0
    2.9169   -0.9162    0.0000 C   0  0  0  0  0  0  0  0  0  0  0  0
    2.2025   -1.3287    0.0000 C   0  0  0  0  0  0  0  0  0  0  0  0
  1  2  2  0  0  0  0
  2  3  1  0  0  0  0
  3  4  1  0  0  0  0
  4  5  4  0  0  0  0
  5  6  4  0  0  0  0
  6  7  4  0  0  0  0
  7  8  1  0  0  0  0
  8  9  1  0  0  0  0
  9 10  1  0  0  0  0
  9 11  2  0  0  0  0
  7 12  4  0  0  0  0
 12 13  4  0  0  0  0
  4 13  4  0  0  0  0
  2 14  1  0  0  0  0
 14 15  1  0  0  0  0
 15 16  4  0  0  0  0
 16 17  1  0  0  0  0
 16 18  4  0  0  0  0
 18 19  1  0  0  0  0
 19 20  1  0  0  0  0
 20 21  4  0  0  0  0
 21 22  4  0  0  0  0
 22 23  4  0  0  0  0
 23 24  1  0  0  0  0
 23 25  4  0  0  0  0
 25 26  4  0  0  0  0
 20 26  4  0  0  0  0
 19 27  2  0  0  0  0
 18 28  4  0  0  0  0
 28 29  4  0  0  0  0
 15 29  4  0  0  0  0
 29 30  4  0  0  0  0
 30 31  4  0  0  0  0
 31 32  1  0  0  0  0
 32 33  1  0  0  0  0
 31 34  4  0  0  0  0
 34 35  4  0  0  0  0
 28 35  4  0  0  0  0
M  END
>  <MOL_ID>
101
>  <Name_of_compounds>
N-(4-Acetamidophenyl)indomethacinamide
>  <Activity_Profiles>
0 0 0 0 0
>  <INITIAL_ID>
1797

>  <SUM_activity>
0

$$$$

  Marvin  08130811232D          

 17 18  0  0  1  0            999 V2000
    0.2101   -2.8390    0.0000 C   0  0  0  0  0  0  0  0  0  0  0  0
    0.2101   -2.0140    0.0000 C   0  0  2  0  0  0  0  0  0  0  0  0
    0.9246   -1.6015    0.0000 C   0  0  0  0  0  0  0  0  0  0  0  0
    0.9246   -0.7765    0.0000 C   0  0  0  0  0  0  0  0  0  0  0  0
    1.6391   -0.3640    0.0000 C   0  0  0  0  0  0  0  0  0  0  0  0
    2.3536   -0.7765    0.0000 C   0  0  0  0  0  0  0  0  0  0  0  0
    3.0680   -0.3640    0.0000 C   0  0  0  0  0  0  0  0  0  0  0  0
    3.7825   -0.7765    0.0000 C   0  0  0  0  0  0  0  0  0  0  0  0
    4.4970   -0.3640    0.0000 O   0  0  0  0  0  0  0  0  0  0  0  0
    5.2114   -0.7765    0.0000 C   0  0  0  0  0  0  0  0  0  0  0  0
    3.7825   -1.6015    0.0000 C   0  0  0  0  0  0  0  0  0  0  0  0
    3.0680   -2.0140    0.0000 C   0  0  0  0  0  0  0  0  0  0  0  0
    2.3536   -1.6015    0.0000 C   0  0  0  0  0  0  0  0  0  0  0  0
    1.6391   -2.0140    0.0000 C   0  0  0  0  0  0  0  0  0  0  0  0
   -0.5043   -1.6015    0.0000 C   0  0  0  0  0  0  0  0  0  0  0  0
   -1.2188   -2.0140    0.0000 O   0  0  0  0  0  0  0  0  0  0  0  0
   -0.5043   -0.7765    0.0000 O   0  0  0  0  0  0  0  0  0  0  0  0
  2  1  1  1  0  0  0
  2  3  1  0  0  0  0
  3  4  4  0  0  0  0
  4  5  4  0  0  0  0
  5  6  4  0  0  0  0
  6  7  4  0  0  0  0
  7  8  4  0  0  0  0
  8  9  1  0  0  0  0
  9 10  1  0  0  0  0
  8 11  4  0  0  0  0
 11 12  4  0  0  0  0
 12 13  4  0  0  0  0
  6 13  4  0  0  0  0
 13 14  4  0  0  0  0
  3 14  4  0  0  0  0
  2 15  1  0  0  0  0
 15 16  1  0  0  0  0
 15 17  2  0  0  0  0
M  END
>  <MOL_ID>
86
>  <Name_of_compounds>
(-) Naproxen
>  <Activity_Profiles>
0 0 0 0 0
>  <INITIAL_ID>
1778

>  <SUM_activity>
0

$$$$

  Marvin  08130811232D          

 10 10  0  0  0  0            999 V2000
    0.7859    0.2063    0.0000 C   0  0  0  0  0  0  0  0  0  0  0  0
    0.0714   -0.2063    0.0000 C   0  0  0  0  0  0  0  0  0  0  0  0
   -0.6430    0.2062    0.0000 C   0  0  0  0  0  0  0  0  0  0  0  0
   -0.6430    1.0312    0.0000 C   0  0  0  0  0  0  0  0  0  0  0  0
    0.0714    1.4437    0.0000 C   0  0  0  0  0  0  0  0  0  0  0  0
    0.7859    1.0312    0.0000 C   0  0  0  0  0  0  0  0  0  0  0  0
    0.0714    2.2687    0.0000 C   0  0  0  0  0  0  0  0  0  0  0  0
    0.7859    2.6812    0.0000 O   0  0  0  0  0  0  0  0  0  0  0  0
   -0.6430    2.6812    0.0000 O   0  0  0  0  0  0  0  0  0  0  0  0
   -1.3575    1.4438    0.0000 O   0  0  0  0  0  0  0  0  0  0  0  0
  1  2  4  0  0  0  0
  2  3  4  0  0  0  0
  3  4  4  0  0  0  0
  4  5  4  0  0  0  0
  5  6  4  0  0  0  0
  1  6  4  0  0  0  0
  5  7  1  0  0  0  0
  7  8  2  0  0  0  0
  7  9  1  0  0  0  0
  4 10  1  0  0  0  0
M  END
>  <MOL_ID>
85
>  <Name_of_compounds>
Salicylate
>  <Activity_Profiles>
0 0 0 0 0
>  <INITIAL_ID>
1777

>  <SUM_activity>
0

$$$$

  Marvin  08130811232D          

 19 20  0  0  0  0            999 V2000
    3.9108   -2.8658    0.0000 C   0  0  0  0  0  0  0  0  0  0  0  0
    4.6253   -3.2783    0.0000 C   0  0  0  0  0  0  0  0  0  0  0  0
    5.3397   -2.8658    0.0000 C   0  0  0  0  0  0  0  0  0  0  0  0
    5.3397   -2.0408    0.0000 C   0  0  0  0  0  0  0  0  0  0  0  0
    4.6253   -1.6283    0.0000 C   0  0  0  0  0  0  0  0  0  0  0  0
    3.9108   -2.0408    0.0000 C   0  0  0  0  0  0  0  0  0  0  0  0
    4.6253   -0.8033    0.0000 C   0  0  0  0  0  0  0  0  0  0  0  0
    5.3397   -0.3908    0.0000 C   0  0  0  0  0  0  0  0  0  0  0  0
    6.0542   -0.8033    0.0000 O   0  0  0  0  0  0  0  0  0  0  0  0
    5.3397    0.4342    0.0000 O   0  0  0  0  0  0  0  0  0  0  0  0
    6.0542   -1.6283    0.0000 N   0  0  0  0  0  0  0  0  0  0  0  0
    6.7687   -2.0408    0.0000 C   0  0  0  0  0  0  0  0  0  0  0  0
    7.4831   -1.6283    0.0000 C   0  0  0  0  0  0  0  0  0  0  0  0
    8.1976   -2.0408    0.0000 C   0  0  0  0  0  0  0  0  0  0  0  0
    8.1976   -2.8658    0.0000 C   0  0  0  0  0  0  0  0  0  0  0  0
    7.4831   -3.2783    0.0000 C   0  0  0  0  0  0  0  0  0  0  0  0
    6.7687   -2.8658    0.0000 C   0  0  0  0  0  0  0  0  0  0  0  0
    6.0542   -3.2783    0.0000 Cl  0  0  0  0  0  0  0  0  0  0  0  0
    7.4831   -0.8033    0.0000 Cl  0  0  0  0  0  0  0  0  0  0  0  0
  1  2  4  0  0  0  0
  2  3  4  0  0  0  0
  3  4  4  0  0  0  0
  4  5  4  0  0  0  0
  5  6  4  0  0  0  0
  1  6  4  0  0  0  0
  5  7  1  0  0  0  0
  7  8  1  0  0  0  0
  8  9  2  0  0  0  0
  8 10  1  0  0  0  0
  4 11  1  0  0  0  0
 11 12  1  0  0  0  0
 12 13  4  0  0  0  0
 13 14  4  0  0  0  0
 14 15  4  0  0  0  0
 15 16  4  0  0  0  0
 16 17  4  0  0  0  0
 12 17  4  0  0  0  0
 17 18  1  0  0  0  0
 13 19  1  0  0  0  0
M  END
>  <MOL_ID>
87
>  <Name_of_compounds>
Diclofenac
>  <Activity_Profiles>
0 0 0 0 0
>  <INITIAL_ID>
1779

>  <SUM_activity>
0

$$$$

  Marvin  08130811232D          

 11 11  0  0  0  0            999 V2000
   -0.5846    1.4625    0.0000 C   0  0  0  0  0  0  0  0  0  0  0  0
   -0.5846    0.6375    0.0000 N   0  0  0  0  0  0  0  0  0  0  0  0
    0.1299    0.2250    0.0000 C   0  0  0  0  0  0  0  0  0  0  0  0
    0.1299   -0.6000    0.0000 C   0  0  0  0  0  0  0  0  0  0  0  0
   -0.5846   -1.0125    0.0000 C   0  0  0  0  0  0  0  0  0  0  0  0
   -1.2990   -0.6000    0.0000 C   0  0  0  0  0  0  0  0  0  0  0  0
   -1.2990    0.2250    0.0000 C   0  0  0  0  0  0  0  0  0  0  0  0
   -2.0135   -1.0125    0.0000 C   0  0  0  0  0  0  0  0  0  0  0  0
   -2.7280   -0.6000    0.0000 O   0  0  0  0  0  0  0  0  0  0  0  0
   -2.0135   -1.8375    0.0000 O   0  0  0  0  0  0  0  0  0  0  0  0
   -2.7280   -2.2500    0.0000 C   0  0  0  0  0  0  0  0  0  0  0  0
  1  2  1  0  0  0  0
  2  3  1  0  0  0  0
  3  4  1  0  0  0  0
  4  5  1  0  0  0  0
  5  6  2  0  0  0  0
  6  7  1  0  0  0  0
  2  7  1  0  0  0  0
  6  8  1  0  0  0  0
  8  9  2  0  0  0  0
  8 10  1  0  0  0  0
 10 11  1  0  0  0  0
M  END
>  <MOL_ID>
83
>  <Name_of_compounds>
Arecoline
>  <Activity_Profiles>
0 0 0 0 0
>  <INITIAL_ID>
1749

>  <SUM_activity>
0

$$$$

  Marvin  08130811232D          

 19 20  0  0  0  0            999 V2000
    1.7739    0.1711    0.0000 C   0  0  0  0  0  0  0  0  0  0  0  0
    1.0594   -0.2414    0.0000 N   0  0  0  0  0  0  0  0  0  0  0  0
    0.3450    0.1711    0.0000 C   0  0  0  0  0  0  0  0  0  0  0  0
    1.0594   -1.0664    0.0000 C   0  0  0  0  0  0  0  0  0  0  0  0
    0.3450   -1.4789    0.0000 C   0  0  0  0  0  0  0  0  0  0  0  0
    0.3450   -2.3039    0.0000 C   0  0  0  0  0  0  0  0  0  0  0  0
   -0.3695   -2.7164    0.0000 C   0  0  0  0  0  0  0  0  0  0  0  0
   -1.0840   -2.3039    0.0000 C   0  0  0  0  0  0  0  0  0  0  0  0
   -1.0840   -1.4789    0.0000 C   0  0  0  0  0  0  0  0  0  0  0  0
   -0.3695   -1.0664    0.0000 C   0  0  0  0  0  0  0  0  0  0  0  0
   -0.7568   -0.3380    0.0000 C   0  0  0  0  0  0  0  0  0  0  0  0
   -1.5813   -0.3092    0.0000 C   0  0  0  0  0  0  0  0  0  0  0  0
   -1.9686    0.4192    0.0000 C   0  0  0  0  0  0  0  0  0  0  0  0
   -1.5314    1.1189    0.0000 C   0  0  0  0  0  0  0  0  0  0  0  0
   -0.7069    1.0901    0.0000 C   0  0  0  0  0  0  0  0  0  0  0  0
   -0.3196    0.3617    0.0000 C   0  0  0  0  0  0  0  0  0  0  0  0
   -2.7931    0.4480    0.0000 O   0  0  0  0  0  0  0  0  0  0  0  0
   -3.1804    1.1765    0.0000 C   0  0  0  0  0  0  0  0  0  0  0  0
    0.0178   -0.3380    0.0000 O   0  0  0  0  0  0  0  0  0  0  0  0
  1  2  1  0  0  0  0
  2  3  1  0  0  0  0
  2  4  1  0  0  0  0
  4  5  1  0  0  0  0
  5  6  1  0  0  0  0
  6  7  1  0  0  0  0
  7  8  1  0  0  0  0
  8  9  1  0  0  0  0
  9 10  1  0  0  0  0
  5 10  1  0  0  0  0
 10 11  1  0  0  0  0
 11 12  4  0  0  0  0
 12 13  4  0  0  0  0
 13 14  4  0  0  0  0
 14 15  4  0  0  0  0
 15 16  4  0  0  0  0
 11 16  4  0  0  0  0
 13 17  1  0  0  0  0
 17 18  1  0  0  0  0
 10 19  1  0  0  0  0
M  END
>  <MOL_ID>
82
>  <Name_of_compounds>
Tramadol
>  <Activity_Profiles>
0 0 0 0 0
>  <INITIAL_ID>
1664

>  <SUM_activity>
0

$$$$

  Marvin  08130811232D          

 24 27  0  0  0  0            999 V2000
    8.8347    7.6811    0.0000 C   0  0  0  0  0  0  0  0  0  0  0  0
    8.4767    6.9378    0.0000 N   0  0  0  0  0  0  0  0  0  0  0  0
    8.9415    6.2562    0.0000 C   0  0  0  0  0  0  0  0  0  0  0  0
    8.5835    5.5129    0.0000 C   0  0  0  0  0  0  0  0  0  0  0  0
    7.7608    5.4512    0.0000 N   0  0  0  0  0  0  0  0  0  0  0  0
    7.2961    6.1329    0.0000 C   0  0  0  0  0  0  0  0  0  0  0  0
    7.6540    6.8762    0.0000 C   0  0  0  0  0  0  0  0  0  0  0  0
    7.4029    4.7079    0.0000 C   0  0  0  0  0  0  0  0  0  0  0  0
    7.9172    4.0629    0.0000 C   0  0  0  0  0  0  0  0  0  0  0  0
    8.7056    4.3061    0.0000 C   0  0  0  0  0  0  0  0  0  0  0  0
    9.3104    3.7449    0.0000 C   0  0  0  0  0  0  0  0  0  0  0  0
    9.1268    2.9406    0.0000 C   0  0  0  0  0  0  0  0  0  0  0  0
    8.3384    2.6975    0.0000 C   0  0  0  0  0  0  0  0  0  0  0  0
    7.7337    3.2586    0.0000 C   0  0  0  0  0  0  0  0  0  0  0  0
    6.9904    2.9006    0.0000 N   0  0  0  0  0  0  0  0  0  0  0  0
    6.2471    3.2586    0.0000 C   0  0  0  0  0  0  0  0  0  0  0  0
    6.0635    4.0629    0.0000 C   0  0  0  0  0  0  0  0  0  0  0  0
    6.5779    4.7079    0.0000 N   0  0  0  0  0  0  0  0  0  0  0  0
    6.2199    5.4512    0.0000 O   0  0  0  0  0  0  0  0  0  0  0  0
    5.2751    4.3061    0.0000 C   0  0  0  0  0  0  0  0  0  0  0  0
    4.6704    3.7449    0.0000 C   0  0  0  0  0  0  0  0  0  0  0  0
    4.8539    2.9406    0.0000 C   0  0  0  0  0  0  0  0  0  0  0  0
    5.6423    2.6975    0.0000 C   0  0  0  0  0  0  0  0  0  0  0  0
    3.8820    3.9881    0.0000 Cl  0  0  0  0  0  0  0  0  0  0  0  0
  1  2  1  0  0  0  0
  2  3  1  0  0  0  0
  3  4  1  0  0  0  0
  4  5  1  0  0  0  0
  5  6  1  0  0  0  0
  6  7  1  0  0  0  0
  2  7  1  0  0  0  0
  5  8  1  0  0  0  0
  8  9  2  0  0  0  0
  9 10  1  0  0  0  0
 10 11  2  0  0  0  0
 11 12  1  0  0  0  0
 12 13  2  0  0  0  0
 13 14  1  0  0  0  0
  9 14  1  0  0  0  0
 14 15  2  0  0  0  0
 15 16  1  0  0  0  0
 16 17  4  0  0  0  0
 17 18  1  0  0  0  0
  8 18  1  0  0  0  0
 18 19  1  0  0  0  0
 17 20  4  0  0  0  0
 20 21  4  0  0  0  0
 21 22  4  0  0  0  0
 22 23  4  0  0  0  0
 16 23  4  0  0  0  0
 21 24  1  0  0  0  0
M  END
>  <MOL_ID>
84
>  <Name_of_compounds>
Clozapine-N Oxide
>  <Activity_Profiles>
0 0 0 0 0
>  <INITIAL_ID>
1756

>  <SUM_activity>
0

$$$$

  Marvin  08130811232D          

 15 15  0  0  1  0            999 V2000
   -0.0953    3.0250    0.0000 C   0  0  0  0  0  0  0  0  0  0  0  0
   -0.0953    2.2000    0.0000 C   0  0  0  0  0  0  0  0  0  0  0  0
   -0.8097    1.7875    0.0000 C   0  0  0  0  0  0  0  0  0  0  0  0
    0.6192    1.7875    0.0000 C   0  0  0  0  0  0  0  0  0  0  0  0
    0.6192    0.9625    0.0000 C   0  0  0  0  0  0  0  0  0  0  0  0
    1.3337    0.5500    0.0000 C   0  0  0  0  0  0  0  0  0  0  0  0
    1.3337   -0.2750    0.0000 C   0  0  0  0  0  0  0  0  0  0  0  0
    0.6192   -0.6875    0.0000 C   0  0  0  0  0  0  0  0  0  0  0  0
   -0.0953   -0.2750    0.0000 C   0  0  0  0  0  0  0  0  0  0  0  0
   -0.0953    0.5500    0.0000 C   0  0  0  0  0  0  0  0  0  0  0  0
    0.6192   -1.5125    0.0000 C   0  0  2  0  0  0  0  0  0  0  0  0
   -0.0953   -1.9250    0.0000 C   0  0  0  0  0  0  0  0  0  0  0  0
    1.3337   -1.9250    0.0000 C   0  0  0  0  0  0  0  0  0  0  0  0
    2.0481   -1.5125    0.0000 O   0  0  0  0  0  0  0  0  0  0  0  0
    1.3337   -2.7500    0.0000 O   0  0  0  0  0  0  0  0  0  0  0  0
  1  2  1  0  0  0  0
  2  3  1  0  0  0  0
  2  4  1  0  0  0  0
  4  5  1  0  0  0  0
  5  6  4  0  0  0  0
  6  7  4  0  0  0  0
  7  8  4  0  0  0  0
  8  9  4  0  0  0  0
  9 10  4  0  0  0  0
  5 10  4  0  0  0  0
  8 11  1  0  0  0  0
 11 12  1  1  0  0  0
 11 13  1  0  0  0  0
 13 14  2  0  0  0  0
 13 15  1  0  0  0  0
M  END
>  <MOL_ID>
91
>  <Name_of_compounds>
(S)-(+)-ibuprofen
>  <Activity_Profiles>
0 0 0 0 0
>  <INITIAL_ID>
1783

>  <SUM_activity>
0

$$$$
Ligand 90
  -ISIS- V. Soloviev 0   1.00000     0.00000     0
File : EDCHEMS.MOL from EdChemS
 23 25  0  0  0  0  0  0  0  0999 V2000
    4.6882   -2.8925    0.0000 C   0  0  0  0  0  0  0  0  0  0  0  0
    3.3548   -3.6667    0.0000 N   0  0  0  0  0  0  0  0  0  0  0  0
    3.3548   -2.8925    0.0000 C   0  0  0  0  0  0  0  0  0  0  0  0
    2.6667   -2.5269    0.0000 C   0  0  0  0  0  0  0  0  0  0  0  0
    5.3333   -2.5269    0.0000 C   0  0  0  0  0  0  0  0  0  0  0  0
    5.3333   -4.0323    0.0000 C   0  0  0  0  0  0  0  0  0  0  0  0
    6.0000   -3.6667    0.0000 C   0  0  0  0  0  0  0  0  0  0  0  0
    4.6882   -3.6667    0.0000 C   0  0  0  0  0  0  0  0  0  0  0  0
    4.0215   -4.0323    0.0000 S   0  0  0  0  0  0  0  0  0  0  0  0
    4.7742   -4.5269    0.0000 O   0  0  0  0  0  0  0  0  0  0  0  0
    3.6774   -4.6344    0.0000 O   0  0  0  0  0  0  0  0  0  0  0  0
    6.0000   -2.8925    0.0000 C   0  0  0  0  0  0  0  0  0  0  0  0
    4.0215   -2.5269    0.0000 C   0  0  0  0  0  0  0  0  0  0  0  0
    4.1290   -1.7312    0.0000 O   0  0  0  0  0  0  0  0  0  0  0  0
    2.6882   -4.0538    0.0000 C   0  0  0  0  0  0  0  0  0  0  0  0
    2.6667   -1.7527    0.0000 O   0  0  0  0  0  0  0  0  0  0  0  0
    2.0000   -2.9140    0.0000 N   0  0  0  0  0  0  0  0  0  0  0  0
    1.3333   -2.5269    0.0000 C   0  0  0  0  0  0  0  0  0  0  0  0
    1.3333   -1.7527    0.0000 C   0  0  0  0  0  0  0  0  0  0  0  0
    0.6667   -2.9140    0.0000 N   0  0  0  0  0  0  0  0  0  0  0  0
   -0.0000   -2.5269    0.0000 C   0  0  0  0  0  0  0  0  0  0  0  0
   -0.0000   -1.7527    0.0000 C   0  0  0  0  0  0  0  0  0  0  0  0
    0.6667   -1.3656    0.0000 C   0  0  0  0  0  0  0  0  0  0  0  0
  2  3  1  0  0  0  0
  3  4  2  0  0  0  0
  3 13  1  0  0  0  0
 13 14  2  0  0  0  0
 13  1  1  0  0  0  0
  1  5  4  0  0  0  0
  5 12  4  0  0  0  0
 12  7  4  0  0  0  0
  7  6  4  0  0  0  0
  6  8  4  0  0  0  0
  1  8  4  0  0  0  0
  8  9  1  0  0  0  0
  2  9  1  0  0  0  0
  9 10  2  0  0  0  0
  9 11  2  0  0  0  0
  2 15  1  0  0  0  0
  4 16  1  0  0  0  0
  4 17  1  0  0  0  0
 17 18  1  0  0  0  0
 18 19  4  0  0  0  0
 18 20  4  0  0  0  0
 20 21  4  0  0  0  0
 21 22  4  0  0  0  0
 22 23  4  0  0  0  0
 23 19  4  0  0  0  0
M  END
>  <MOL_ID>
90
>  <Name_of_compounds>
Piroxicam
>  <Activity_Profiles>
0 0 0 0 0
>  <INITIAL_ID>
1782

>  <SUM_activity>
0

$$$$

  Marvin  08130811232D          

 15 15  0  0  0  0            999 V2000
   -0.0953    3.0250    0.0000 C   0  0  0  0  0  0  0  0  0  0  0  0
   -0.0953    2.2000    0.0000 C   0  0  0  0  0  0  0  0  0  0  0  0
   -0.8097    1.7875    0.0000 C   0  0  0  0  0  0  0  0  0  0  0  0
    0.6192    1.7875    0.0000 C   0  0  0  0  0  0  0  0  0  0  0  0
    0.6192    0.9625    0.0000 C   0  0  0  0  0  0  0  0  0  0  0  0
    1.3337    0.5500    0.0000 C   0  0  0  0  0  0  0  0  0  0  0  0
    1.3337   -0.2750    0.0000 C   0  0  0  0  0  0  0  0  0  0  0  0
    0.6192   -0.6875    0.0000 C   0  0  0  0  0  0  0  0  0  0  0  0
   -0.0953   -0.2750    0.0000 C   0  0  0  0  0  0  0  0  0  0  0  0
   -0.0953    0.5500    0.0000 C   0  0  0  0  0  0  0  0  0  0  0  0
    0.6192   -1.5125    0.0000 C   0  0  0  0  0  0  0  0  0  0  0  0
   -0.0953   -1.9250    0.0000 C   0  0  0  0  0  0  0  0  0  0  0  0
    1.3337   -1.9250    0.0000 C   0  0  0  0  0  0  0  0  0  0  0  0
    2.0481   -1.5125    0.0000 O   0  0  0  0  0  0  0  0  0  0  0  0
    1.3337   -2.7500    0.0000 O   0  0  0  0  0  0  0  0  0  0  0  0
  1  2  1  0  0  0  0
  2  3  1  0  0  0  0
  2  4  1  0  0  0  0
  4  5  1  0  0  0  0
  5  6  4  0  0  0  0
  6  7  4  0  0  0  0
  7  8  4  0  0  0  0
  8  9  4  0  0  0  0
  9 10  4  0  0  0  0
  5 10  4  0  0  0  0
  8 11  1  0  0  0  0
 11 12  1  0  0  0  0
 11 13  1  0  0  0  0
 13 14  2  0  0  0  0
 13 15  1  0  0  0  0
M  END
>  <MOL_ID>
92
>  <Name_of_compounds>
ibuprofen
>  <Activity_Profiles>
0 0 0 0 0
>  <INITIAL_ID>
1784

>  <SUM_activity>
0

$$$$

  Marvin  08130811232D          

 13 13  0  0  0  0            999 V2000
    1.0992    5.0135    0.0000 C   0  0  0  0  0  0  0  0  0  0  0  0
    1.0992    4.1885    0.0000 C   0  0  0  0  0  0  0  0  0  0  0  0
    1.8136    3.7760    0.0000 O   0  0  0  0  0  0  0  0  0  0  0  0
    0.3847    3.7760    0.0000 O   0  0  0  0  0  0  0  0  0  0  0  0
    0.3847    2.9510    0.0000 C   0  0  0  0  0  0  0  0  0  0  0  0
    1.0992    2.5385    0.0000 C   0  0  0  0  0  0  0  0  0  0  0  0
    1.0992    1.7135    0.0000 C   0  0  0  0  0  0  0  0  0  0  0  0
    0.3847    1.3010    0.0000 C   0  0  0  0  0  0  0  0  0  0  0  0
   -0.3298    1.7135    0.0000 C   0  0  0  0  0  0  0  0  0  0  0  0
   -0.3298    2.5385    0.0000 C   0  0  0  0  0  0  0  0  0  0  0  0
   -1.0442    2.9510    0.0000 C   0  0  0  0  0  0  0  0  0  0  0  0
   -1.0442    3.7760    0.0000 O   0  0  0  0  0  0  0  0  0  0  0  0
   -1.7587    2.5385    0.0000 O   0  0  0  0  0  0  0  0  0  0  0  0
  1  2  1  0  0  0  0
  2  3  2  0  0  0  0
  2  4  1  0  0  0  0
  4  5  1  0  0  0  0
  5  6  4  0  0  0  0
  6  7  4  0  0  0  0
  7  8  4  0  0  0  0
  8  9  4  0  0  0  0
  9 10  4  0  0  0  0
  5 10  4  0  0  0  0
 10 11  1  0  0  0  0
 11 12  2  0  0  0  0
 11 13  1  0  0  0  0
M  END
>  <MOL_ID>
88
>  <Name_of_compounds>
Acetylsalicylic acid
>  <Activity_Profiles>
0 0 0 0 0
>  <INITIAL_ID>
1780

>  <SUM_activity>
0

$$$$
Ligand 89
  -ISIS- V. Soloviev 0   1.00000     0.00000     0
File : EDCHEMS.MOL from EdChemS
 21 22  0  0  0  0  0  0  0  0999 V2000
    1.3486   -0.0963    0.0000 C   0  0  0  0  0  0  0  0  0  0  0  0
    0.8532   -0.9495    0.0000 S   0  0  0  0  0  0  0  0  0  0  0  0
   -0.0000   -0.4541    0.0000 O   0  0  0  0  0  0  0  0  0  0  0  0
    0.3578   -1.8028    0.0000 O   0  0  0  0  0  0  0  0  0  0  0  0
    1.7064   -1.4450    0.0000 N   0  0  0  0  0  0  0  0  0  0  0  0
    1.7064   -2.4358    0.0000 C   0  0  0  0  0  0  0  0  0  0  0  0
    2.5596   -2.9312    0.0000 C   0  0  0  0  0  0  0  0  0  0  0  0
    2.5596   -3.9220    0.0000 C   0  0  0  0  0  0  0  0  0  0  0  0
    1.7064   -4.4174    0.0000 C   0  0  0  0  0  0  0  0  0  0  0  0
    0.8532   -3.9220    0.0000 C   0  0  0  0  0  0  0  0  0  0  0  0
    0.8532   -2.9312    0.0000 C   0  0  0  0  0  0  0  0  0  0  0  0
    1.7064   -5.4083    0.0000 N   0  0  0  0  0  0  0  0  0  0  0  0
    0.8532   -5.9037    0.0000 O   0  0  0  0  0  0  0  0  0  0  0  0
    2.5596   -5.9037    0.0000 O   0  0  0  0  0  0  0  0  0  0  0  0
    3.4404   -2.4358    0.0000 O   0  0  0  0  0  0  0  0  0  0  0  0
    4.2936   -2.9312    0.0000 C   0  0  0  0  0  0  0  0  0  0  0  0
    5.1468   -2.4358    0.0000 C   0  0  0  0  0  0  0  0  0  0  0  0
    6.0000   -2.9312    0.0000 C   0  0  0  0  0  0  0  0  0  0  0  0
    6.0000   -3.9220    0.0000 C   0  0  0  0  0  0  0  0  0  0  0  0
    5.1468   -4.4174    0.0000 C   0  0  0  0  0  0  0  0  0  0  0  0
    4.2936   -3.9220    0.0000 C   0  0  0  0  0  0  0  0  0  0  0  0
  1  2  1  0  0  0  0
  2  3  2  0  0  0  0
  2  4  2  0  0  0  0
  2  5  1  0  0  0  0
  5  6  1  0  0  0  0
  6  7  4  0  0  0  0
  7  8  4  0  0  0  0
  8  9  4  0  0  0  0
  9 10  4  0  0  0  0
 10 11  4  0  0  0  0
  6 11  4  0  0  0  0
  9 12  1  0  0  0  0
 12 13  2  0  0  0  0
 12 14  2  0  0  0  0
  7 15  1  0  0  0  0
 15 16  1  0  0  0  0
 16 17  4  0  0  0  0
 17 18  4  0  0  0  0
 18 19  4  0  0  0  0
 19 20  4  0  0  0  0
 20 21  4  0  0  0  0
 16 21  4  0  0  0  0
M  END
>  <MOL_ID>
89
>  <Name_of_compounds>
nimesulide
>  <Activity_Profiles>
0 0 0 0 0
>  <INITIAL_ID>
1781

>  <SUM_activity>
0

$$$$

  Marvin  08130811232D          

 18 19  0  0  0  0            999 V2000
   -1.7507   -3.9866    0.0000 C   0  0  0  0  0  0  0  0  0  0  0  0
   -1.0362   -4.3991    0.0000 C   0  0  0  0  0  0  0  0  0  0  0  0
   -1.0362   -5.2241    0.0000 C   0  0  0  0  0  0  0  0  0  0  0  0
   -0.3217   -3.9866    0.0000 C   0  0  0  0  0  0  0  0  0  0  0  0
    0.3927   -4.3991    0.0000 C   0  0  0  0  0  0  0  0  0  0  0  0
    0.3927   -5.2241    0.0000 C   0  0  0  0  0  0  0  0  0  0  0  0
    1.2177   -5.2241    0.0000 C   0  0  0  0  0  0  0  0  0  0  0  0
    1.6302   -4.5097    0.0000 C   0  0  0  0  0  0  0  0  0  0  0  0
    2.4552   -4.5097    0.0000 C   0  0  0  0  0  0  0  0  0  0  0  0
    2.8677   -5.2241    0.0000 C   0  0  0  0  0  0  0  0  0  0  0  0
    3.6927   -5.2241    0.0000 Cl  0  0  0  0  0  0  0  0  0  0  0  0
    2.4552   -5.9386    0.0000 C   0  0  0  0  0  0  0  0  0  0  0  0
    1.6302   -5.9386    0.0000 C   0  0  0  0  0  0  0  0  0  0  0  0
   -0.4323   -5.2241    0.0000 C   0  0  0  0  0  0  0  0  0  0  0  0
   -0.4323   -6.0491    0.0000 C   0  0  0  0  0  0  0  0  0  0  0  0
    0.3927   -6.0491    0.0000 C   0  0  0  0  0  0  0  0  0  0  0  0
    1.1072   -3.9866    0.0000 N   0  0  0  0  0  0  0  0  0  0  0  0
    1.1072   -3.1616    0.0000 C   0  0  0  0  0  0  0  0  0  0  0  0
  1  2  1  0  0  0  0
  2  3  1  0  0  0  0
  2  4  1  0  0  0  0
  4  5  1  0  0  0  0
  5  6  1  0  0  0  0
  6  7  1  0  0  0  0
  7  8  4  0  0  0  0
  8  9  4  0  0  0  0
  9 10  4  0  0  0  0
 10 11  1  0  0  0  0
 10 12  4  0  0  0  0
 12 13  4  0  0  0  0
  7 13  4  0  0  0  0
  6 14  1  0  0  0  0
 14 15  1  0  0  0  0
 15 16  1  0  0  0  0
  6 16  1  0  0  0  0
  5 17  1  0  0  0  0
 17 18  1  0  0  0  0
M  END
>  <MOL_ID>
33
>  <Name_of_compounds>
cyclobutanemethanamine, N-methyl-1-(4-chloropheny;)-alph-(2-methylpropyl)
>  <Activity_Profiles>
0 0 0 0 0
>  <INITIAL_ID>
542

>  <SUM_activity>
0

$$$$

  Marvin  08130811232D          

 20 20  0  0  0  0            999 V2000
   -2.4292    3.6300    0.0000 C   0  0  0  0  0  0  0  0  0  0  0  0
   -1.7147    3.2175    0.0000 C   0  0  0  0  0  0  0  0  0  0  0  0
   -1.0003    3.6300    0.0000 C   0  0  0  0  0  0  0  0  0  0  0  0
   -1.0003    4.4550    0.0000 C   0  0  0  0  0  0  0  0  0  0  0  0
   -0.2858    4.8675    0.0000 C   0  0  0  0  0  0  0  0  0  0  0  0
   -0.2858    3.2175    0.0000 O   0  0  0  0  0  0  0  0  0  0  0  0
   -0.2858    2.3925    0.0000 C   0  0  0  0  0  0  0  0  0  0  0  0
    0.4287    1.9800    0.0000 C   0  0  0  0  0  0  0  0  0  0  0  0
    0.4287    1.1550    0.0000 C   0  0  0  0  0  0  0  0  0  0  0  0
   -0.2858    0.7425    0.0000 C   0  0  0  0  0  0  0  0  0  0  0  0
   -1.0003    1.1550    0.0000 C   0  0  0  0  0  0  0  0  0  0  0  0
   -1.0003    1.9800    0.0000 C   0  0  0  0  0  0  0  0  0  0  0  0
   -1.7147    2.3925    0.0000 N   0  0  0  0  0  0  0  0  0  0  0  0
   -2.4292    1.9800    0.0000 C   0  0  0  0  0  0  0  0  0  0  0  0
   -2.4292    1.1550    0.0000 O   0  0  0  0  0  0  0  0  0  0  0  0
   -3.1437    2.3925    0.0000 C   0  0  0  0  0  0  0  0  0  0  0  0
   -1.7147    0.7425    0.0000 N   0  0  0  0  0  0  0  0  0  0  0  0
    1.1432    0.7425    0.0000 C   0  0  0  0  0  0  0  0  0  0  0  0
    1.1432   -0.0825    0.0000 O   0  0  0  0  0  0  0  0  0  0  0  0
    1.8576    1.1550    0.0000 O   0  0  0  0  0  0  0  0  0  0  0  0
  1  2  1  0  0  0  0
  2  3  1  0  0  0  0
  3  4  1  0  0  0  0
  4  5  1  0  0  0  0
  3  6  1  0  0  0  0
  6  7  1  0  0  0  0
  7  8  1  0  0  0  0
  8  9  2  0  0  0  0
  9 10  1  0  0  0  0
 10 11  1  0  0  0  0
 11 12  1  0  0  0  0
  7 12  1  0  0  0  0
 12 13  1  0  0  0  0
 13 14  1  0  0  0  0
 14 15  2  0  0  0  0
 14 16  1  0  0  0  0
 11 17  1  0  0  0  0
  9 18  1  0  0  0  0
 18 19  2  0  0  0  0
 18 20  1  0  0  0  0
M  END
>  <MOL_ID>
138
>  <Name_of_compounds>
Oseltamivir Acid
>  <Activity_Profiles>
0 0 0 0 0
>  <INITIAL_ID>
4568

>  <SUM_activity>
0

$$$$

  Marvin  08130811232D          

 22 22  0  0  0  0            999 V2000
   -1.8836    3.6375    0.0000 C   0  0  0  0  0  0  0  0  0  0  0  0
   -1.1691    3.2250    0.0000 C   0  0  0  0  0  0  0  0  0  0  0  0
   -0.4547    3.6375    0.0000 C   0  0  0  0  0  0  0  0  0  0  0  0
   -0.4547    4.4625    0.0000 C   0  0  0  0  0  0  0  0  0  0  0  0
    0.2598    4.8750    0.0000 C   0  0  0  0  0  0  0  0  0  0  0  0
    0.2598    3.2250    0.0000 O   0  0  0  0  0  0  0  0  0  0  0  0
    0.2598    2.4000    0.0000 C   0  0  0  0  0  0  0  0  0  0  0  0
    0.9743    1.9875    0.0000 C   0  0  0  0  0  0  0  0  0  0  0  0
    0.9743    1.1625    0.0000 C   0  0  0  0  0  0  0  0  0  0  0  0
    0.2598    0.7500    0.0000 C   0  0  0  0  0  0  0  0  0  0  0  0
   -0.4547    1.1625    0.0000 C   0  0  0  0  0  0  0  0  0  0  0  0
   -0.4547    1.9875    0.0000 C   0  0  0  0  0  0  0  0  0  0  0  0
   -1.1691    2.4000    0.0000 N   0  0  0  0  0  0  0  0  0  0  0  0
   -1.8836    1.9875    0.0000 C   0  0  0  0  0  0  0  0  0  0  0  0
   -1.8836    1.1625    0.0000 O   0  0  0  0  0  0  0  0  0  0  0  0
   -2.5981    2.4000    0.0000 C   0  0  0  0  0  0  0  0  0  0  0  0
   -1.1691    0.7500    0.0000 N   0  0  0  0  0  0  0  0  0  0  0  0
    1.6888    0.7500    0.0000 C   0  0  0  0  0  0  0  0  0  0  0  0
    1.6888   -0.0750    0.0000 O   0  0  0  0  0  0  0  0  0  0  0  0
    2.4032    1.1625    0.0000 O   0  0  0  0  0  0  0  0  0  0  0  0
    2.4032    1.9875    0.0000 C   0  0  0  0  0  0  0  0  0  0  0  0
    3.1177    2.4000    0.0000 C   0  0  0  0  0  0  0  0  0  0  0  0
  1  2  1  0  0  0  0
  2  3  1  0  0  0  0
  3  4  1  0  0  0  0
  4  5  1  0  0  0  0
  3  6  1  0  0  0  0
  6  7  1  0  0  0  0
  7  8  1  0  0  0  0
  8  9  2  0  0  0  0
  9 10  1  0  0  0  0
 10 11  1  0  0  0  0
 11 12  1  0  0  0  0
  7 12  1  0  0  0  0
 12 13  1  0  0  0  0
 13 14  1  0  0  0  0
 14 15  2  0  0  0  0
 14 16  1  0  0  0  0
 11 17  1  0  0  0  0
  9 18  1  0  0  0  0
 18 19  2  0  0  0  0
 18 20  1  0  0  0  0
 20 21  1  0  0  0  0
 21 22  1  0  0  0  0
M  END
>  <MOL_ID>
137
>  <Name_of_compounds>
Tamiflu
>  <Activity_Profiles>
0 0 0 0 0
>  <INITIAL_ID>
4567

>  <SUM_activity>
0

$$$$

  Marvin  08130811232D          

 17 18  0  0  0  0            999 V2000
   -0.6805    0.0422    0.0000 C   0  0  0  0  0  0  0  0  0  0  0  0
    0.1164    0.2557    0.0000 C   0  0  0  0  0  0  0  0  0  0  0  0
    0.6997   -0.3277    0.0000 C   0  0  0  0  0  0  0  0  0  0  0  0
    1.4966   -0.1142    0.0000 C   0  0  0  0  0  0  0  0  0  0  0  0
    1.7101    0.6827    0.0000 N   0  0  0  0  0  0  0  0  0  0  0  0
    2.0800   -0.6975    0.0000 C   0  0  0  0  0  0  0  0  0  0  0  0
    2.6633   -1.2809    0.0000 C   0  0  0  0  0  0  0  0  0  0  0  0
    2.0800   -1.8643    0.0000 C   0  0  0  0  0  0  0  0  0  0  0  0
    1.4966   -1.2809    0.0000 C   0  0  0  0  0  0  0  0  0  0  0  0
    2.6633   -0.1142    0.0000 C   0  0  0  0  0  0  0  0  0  0  0  0
    2.4498    0.6827    0.0000 C   0  0  0  0  0  0  0  0  0  0  0  0
    3.0332    1.2661    0.0000 C   0  0  0  0  0  0  0  0  0  0  0  0
    3.8301    1.0526    0.0000 C   0  0  0  0  0  0  0  0  0  0  0  0
    4.0436    0.2557    0.0000 C   0  0  0  0  0  0  0  0  0  0  0  0
    3.4602   -0.3277    0.0000 C   0  0  0  0  0  0  0  0  0  0  0  0
    4.4134    1.6359    0.0000 Cl  0  0  0  0  0  0  0  0  0  0  0  0
    0.3299    1.0526    0.0000 C   0  0  0  0  0  0  0  0  0  0  0  0
  1  2  1  0  0  0  0
  2  3  1  0  0  0  0
  3  4  1  0  0  0  0
  4  5  1  0  0  0  0
  4  6  1  0  0  0  0
  6  7  1  0  0  0  0
  7  8  1  0  0  0  0
  8  9  1  0  0  0  0
  6  9  1  0  0  0  0
  6 10  1  0  0  0  0
 10 11  4  0  0  0  0
 11 12  4  0  0  0  0
 12 13  4  0  0  0  0
 13 14  4  0  0  0  0
 14 15  4  0  0  0  0
 10 15  4  0  0  0  0
 13 16  1  0  0  0  0
  2 17  1  0  0  0  0
M  END
>  <MOL_ID>
32
>  <Name_of_compounds>
cyclobutanemethanamine, 1-(4-chloropheny;)-alph-(2-methylpropyl)
>  <Activity_Profiles>
0 0 0 0 0
>  <INITIAL_ID>
541

>  <SUM_activity>
0

$$$$

  Marvin  08130811232D          

 16 17  0  0  0  0            999 V2000
    2.0212    9.8489    0.0000 C   0  0  0  0  0  0  0  0  0  0  0  0
    2.0212    9.0239    0.0000 O   0  0  0  0  0  0  0  0  0  0  0  0
    1.3067    8.6114    0.0000 C   0  0  0  0  0  0  0  0  0  0  0  0
    1.3067    7.7864    0.0000 C   0  0  0  0  0  0  0  0  0  0  0  0
    0.5922    7.3739    0.0000 C   0  0  0  0  0  0  0  0  0  0  0  0
   -0.1222    7.7864    0.0000 C   0  0  0  0  0  0  0  0  0  0  0  0
   -0.1222    8.6114    0.0000 C   0  0  0  0  0  0  0  0  0  0  0  0
    0.5922    9.0239    0.0000 C   0  0  0  0  0  0  0  0  0  0  0  0
   -0.8367    7.3739    0.0000 C   0  0  0  0  0  0  0  0  0  0  0  0
   -1.5512    7.7864    0.0000 O   0  0  0  0  0  0  0  0  0  0  0  0
   -0.8367    6.5489    0.0000 N   0  0  0  0  0  0  0  0  0  0  0  0
   -0.1693    6.0640    0.0000 C   0  0  0  0  0  0  0  0  0  0  0  0
   -0.4242    5.2794    0.0000 C   0  0  0  0  0  0  0  0  0  0  0  0
   -1.2492    5.2794    0.0000 C   0  0  0  0  0  0  0  0  0  0  0  0
   -1.5042    6.0640    0.0000 C   0  0  0  0  0  0  0  0  0  0  0  0
   -2.2888    6.3189    0.0000 O   0  0  0  0  0  0  0  0  0  0  0  0
  1  2  1  0  0  0  0
  2  3  1  0  0  0  0
  3  4  4  0  0  0  0
  4  5  4  0  0  0  0
  5  6  4  0  0  0  0
  6  7  4  0  0  0  0
  7  8  4  0  0  0  0
  3  8  4  0  0  0  0
  6  9  1  0  0  0  0
  9 10  2  0  0  0  0
  9 11  1  0  0  0  0
 11 12  1  0  0  0  0
 12 13  1  0  0  0  0
 13 14  1  0  0  0  0
 14 15  1  0  0  0  0
 11 15  1  0  0  0  0
 15 16  2  0  0  0  0
M  END
>  <MOL_ID>
127
>  <Name_of_compounds>
aniracetam
>  <Activity_Profiles>
0 0 0 0 0
>  <INITIAL_ID>
2667

>  <SUM_activity>
0

$$$$

  Marvin  08130811232D          

 22 24  0  0  0  0            999 V2000
    2.1759   -3.0723    0.0000 C   0  0  0  0  0  0  0  0  0  0  0  0
    2.4975   -2.2794    0.0000 C   0  0  0  0  0  0  0  0  0  0  0  0
    2.5838   -1.4589    0.0000 O   0  0  0  0  0  0  0  0  0  0  0  0
    3.3907   -1.2874    0.0000 C   0  0  0  0  0  0  0  0  0  0  0  0
    3.8032   -0.5729    0.0000 C   0  0  0  0  0  0  0  0  0  0  0  0
    4.6282   -0.5729    0.0000 O   0  0  0  0  0  0  0  0  0  0  0  0
    5.0407   -1.2874    0.0000 C   0  0  0  0  0  0  0  0  0  0  0  0
    4.6282   -2.0018    0.0000 C   0  0  0  0  0  0  0  0  0  0  0  0
    3.8032   -2.0018    0.0000 C   0  0  0  0  0  0  0  0  0  0  0  0
    3.2512   -2.6149    0.0000 O   0  0  0  0  0  0  0  0  0  0  0  0
    5.1803   -2.6149    0.0000 O   0  0  0  0  0  0  0  0  0  0  0  0
    5.9339   -2.2794    0.0000 C   0  0  0  0  0  0  0  0  0  0  0  0
    5.8477   -1.4589    0.0000 O   0  0  0  0  0  0  0  0  0  0  0  0
    6.2963   -3.0641    0.0000 C   0  0  0  0  0  0  0  0  0  0  0  0
    6.7789   -2.1159    0.0000 C   0  0  0  0  0  0  0  0  0  0  0  0
    4.2647   -1.6340    0.0000 C   0  0  0  0  0  0  0  0  0  0  0  0
    4.2727   -2.6092    0.0000 O   0  0  0  0  0  0  0  0  0  0  0  0
    4.3540   -3.4675    0.0000 S   0  0  0  0  0  0  0  0  0  0  0  0
    3.5327   -3.5453    0.0000 O   0  0  0  0  0  0  0  0  0  0  0  0
    5.1754   -3.3897    0.0000 O   0  0  0  0  0  0  0  0  0  0  0  0
    4.4318   -4.2888    0.0000 N   0  0  0  0  0  0  0  0  0  0  0  0
    1.6331   -2.1120    0.0000 C   0  0  0  0  0  0  0  0  0  0  0  0
  1  2  1  0  0  0  0
  2  3  1  0  0  0  0
  3  4  1  0  0  0  0
  4  5  1  0  0  0  0
  5  6  1  0  0  0  0
  6  7  1  0  0  0  0
  7  8  1  0  0  0  0
  8  9  1  0  0  0  0
  4  9  1  0  0  0  0
  9 10  1  0  0  0  0
  2 10  1  0  0  0  0
  8 11  1  0  0  0  0
 11 12  1  0  0  0  0
 12 13  1  0  0  0  0
  7 13  1  0  0  0  0
 12 14  1  0  0  0  0
 12 15  1  0  0  0  0
  7 16  1  0  0  0  0
 16 17  1  0  0  0  0
 17 18  1  0  0  0  0
 18 19  2  0  0  0  0
 18 20  2  0  0  0  0
 18 21  1  0  0  0  0
  2 22  1  0  0  0  0
M  END
>  <MOL_ID>
36
>  <Name_of_compounds>
Topiramate
>  <Activity_Profiles>
0 0 0 0 0
>  <INITIAL_ID>
586

>  <SUM_activity>
0

$$$$

  Marvin  08130811232D          

 16 17  0  0  0  0            999 V2000
    0.1786   -4.3312    0.0000 C   0  0  0  0  0  0  0  0  0  0  0  0
   -0.5359   -4.7438    0.0000 C   0  0  0  0  0  0  0  0  0  0  0  0
   -1.2503   -4.3313    0.0000 C   0  0  0  0  0  0  0  0  0  0  0  0
   -1.2503   -3.5063    0.0000 C   0  0  0  0  0  0  0  0  0  0  0  0
   -0.5359   -3.0938    0.0000 C   0  0  0  0  0  0  0  0  0  0  0  0
    0.1786   -3.5062    0.0000 C   0  0  0  0  0  0  0  0  0  0  0  0
   -0.5359   -2.2688    0.0000 Cl  0  0  0  0  0  0  0  0  0  0  0  0
   -1.9648   -3.0938    0.0000 Cl  0  0  0  0  0  0  0  0  0  0  0  0
   -1.9648   -4.7438    0.0000 C   0  0  0  0  0  0  0  0  0  0  0  0
   -1.9648   -5.5688    0.0000 C   0  0  0  0  0  0  0  0  0  0  0  0
   -2.6793   -5.9813    0.0000 N   0  0  0  0  0  0  0  0  0  0  0  0
   -3.3937   -5.5688    0.0000 C   0  0  0  0  0  0  0  0  0  0  0  0
   -3.3937   -4.7438    0.0000 N   0  0  0  0  0  0  0  0  0  0  0  0
   -2.6793   -4.3313    0.0000 N   0  0  0  0  0  0  0  0  0  0  0  0
   -4.1082   -5.9813    0.0000 N   0  0  0  0  0  0  0  0  0  0  0  0
   -1.2503   -5.9813    0.0000 N   0  0  0  0  0  0  0  0  0  0  0  0
  1  2  4  0  0  0  0
  2  3  4  0  0  0  0
  3  4  4  0  0  0  0
  4  5  4  0  0  0  0
  5  6  4  0  0  0  0
  1  6  4  0  0  0  0
  5  7  1  0  0  0  0
  4  8  1  0  0  0  0
  3  9  1  0  0  0  0
  9 10  4  0  0  0  0
 10 11  4  0  0  0  0
 11 12  4  0  0  0  0
 12 13  4  0  0  0  0
 13 14  4  0  0  0  0
  9 14  4  0  0  0  0
 12 15  1  0  0  0  0
 10 16  1  0  0  0  0
M  END
>  <MOL_ID>
34
>  <Name_of_compounds>
lamotrigine
>  <Activity_Profiles>
0 0 0 0 0
>  <INITIAL_ID>
584

>  <SUM_activity>
0

$$$$

  Marvin  08130811232D          

 10  9  0  0  0  0            999 V2000
    4.5095   -2.2480    0.0000 C   0  0  0  0  0  0  0  0  0  0  0  0
    5.2239   -1.8355    0.0000 C   0  0  0  0  0  0  0  0  0  0  0  0
    5.9384   -2.2480    0.0000 C   0  0  0  0  0  0  0  0  0  0  0  0
    6.6529   -1.8355    0.0000 C   0  0  0  0  0  0  0  0  0  0  0  0
    7.3674   -2.2480    0.0000 C   0  0  0  0  0  0  0  0  0  0  0  0
    8.0818   -1.8355    0.0000 C   0  0  0  0  0  0  0  0  0  0  0  0
    8.7963   -2.2480    0.0000 C   0  0  0  0  0  0  0  0  0  0  0  0
    6.6529   -1.0105    0.0000 C   0  0  0  0  0  0  0  0  0  0  0  0
    7.3674   -0.5980    0.0000 O   0  0  0  0  0  0  0  0  0  0  0  0
    5.9384   -0.5980    0.0000 O   0  0  0  0  0  0  0  0  0  0  0  0
  1  2  1  0  0  0  0
  2  3  1  0  0  0  0
  3  4  1  0  0  0  0
  4  5  1  0  0  0  0
  5  6  1  0  0  0  0
  6  7  1  0  0  0  0
  4  8  1  0  0  0  0
  8  9  2  0  0  0  0
  8 10  1  0  0  0  0
M  END
>  <MOL_ID>
35
>  <Name_of_compounds>
Valproate
>  <Activity_Profiles>
0 0 0 0 0
>  <INITIAL_ID>
585

>  <SUM_activity>
0

$$$$

  Marvin  08130811232D          

 28 32  0  0  0  0            999 V2000
    6.9604   -0.9707    0.0000 C   0  0  0  0  0  0  0  0  0  0  0  0
    7.1259   -0.1144    0.0000 C   0  0  0  0  0  0  0  0  0  0  0  0
    7.6577   -0.7451    0.0000 C   0  0  0  0  0  0  0  0  0  0  0  0
    8.4698   -0.5999    0.0000 C   0  0  0  0  0  0  0  0  0  0  0  0
    8.7501    0.1761    0.0000 C   0  0  0  0  0  0  0  0  0  0  0  0
    8.2183    0.8068    0.0000 C   0  0  0  0  0  0  0  0  0  0  0  0
    7.4062    0.6616    0.0000 C   0  0  0  0  0  0  0  0  0  0  0  0
    6.8744    1.2923    0.0000 C   0  0  0  0  0  0  0  0  0  0  0  0
    6.0623    1.1471    0.0000 C   0  0  0  0  0  0  0  0  0  0  0  0
    5.7820    0.3711    0.0000 C   0  0  0  0  0  0  0  0  0  0  0  0
    6.3138   -0.2596    0.0000 C   0  0  0  0  0  0  0  0  0  0  0  0
    6.0335   -1.0355    0.0000 C   0  0  0  0  0  0  0  0  0  0  0  0
    5.2214   -1.1807    0.0000 C   0  0  0  0  0  0  0  0  0  0  0  0
    4.6895   -0.5500    0.0000 C   0  0  0  0  0  0  0  0  0  0  0  0
    4.9698    0.2259    0.0000 C   0  0  0  0  0  0  0  0  0  0  0  0
    4.3185    0.7323    0.0000 C   0  0  0  0  0  0  0  0  0  0  0  0
    3.6357    0.2693    0.0000 C   0  0  0  0  0  0  0  0  0  0  0  0
    3.8650   -0.5232    0.0000 C   0  0  0  0  0  0  0  0  0  0  0  0
    3.3586   -1.1745    0.0000 C   0  0  0  0  0  0  0  0  0  0  0  0
    3.5879   -1.9670    0.0000 C   0  0  0  0  0  0  0  0  0  0  0  0
    2.9051   -2.4300    0.0000 C   0  0  0  0  0  0  0  0  0  0  0  0
    2.8783   -3.2546    0.0000 O   0  0  0  0  0  0  0  0  0  0  0  0
    2.2538   -1.9237    0.0000 O   0  0  0  0  0  0  0  0  0  0  0  0
    2.5341   -1.1477    0.0000 C   0  0  0  0  0  0  0  0  0  0  0  0
    2.8099    0.5513    0.0000 O   0  0  0  0  0  0  0  0  0  0  0  0
    5.0250    1.1068    0.0000 O   0  0  0  0  0  0  0  0  0  0  0  0
    4.2171    0.0925    0.0000 C   0  0  0  0  0  0  0  0  0  0  0  0
    9.6065    0.3292    0.0000 O   0  0  0  0  0  0  0  0  0  0  0  0
  1  2  1  0  0  0  0
  2  3  1  0  0  0  0
  3  4  1  0  0  0  0
  4  5  1  0  0  0  0
  5  6  1  0  0  0  0
  6  7  1  0  0  0  0
  2  7  1  0  0  0  0
  7  8  1  0  0  0  0
  8  9  1  0  0  0  0
  9 10  1  0  0  0  0
 10 11  1  0  0  0  0
  2 11  1  0  0  0  0
 11 12  1  0  0  0  0
 12 13  1  0  0  0  0
 13 14  1  0  0  0  0
 14 15  1  0  0  0  0
 10 15  1  0  0  0  0
 15 16  1  0  0  0  0
 16 17  1  0  0  0  0
 17 18  1  0  0  0  0
 14 18  1  0  0  0  0
 18 19  1  0  0  0  0
 19 20  2  0  0  0  0
 20 21  1  0  0  0  0
 21 22  2  0  0  0  0
 21 23  1  0  0  0  0
 23 24  1  0  0  0  0
 19 24  1  0  0  0  0
 17 25  1  0  0  0  0
 15 26  1  0  0  0  0
 14 27  1  0  0  0  0
  5 28  1  0  0  0  0
M  END
>  <MOL_ID>
125
>  <Name_of_compounds>
Gitoxigenin
>  <Activity_Profiles>
0 0 0 0 0
>  <INITIAL_ID>
2360

>  <SUM_activity>
0

$$$$
Ligand 27
  -ISIS- V. Soloviev 0   1.00000     0.00000     0
File : EDCHEMS.MOL from EdChemS
 22 23  0  0  0  0  0  0  0  0999 V2000
    0.0000   -2.5084    0.0000 C   0  0  0  0  0  0  0  0  0  0  0  0
    5.2185   -3.3403    0.0000 C   0  0  0  0  0  0  0  0  0  0  0  0
    5.2185   -4.2479    0.0000 N   0  0  0  0  0  0  0  0  0  0  0  0
    5.9496   -4.7773    0.0000 C   0  0  0  0  0  0  0  0  0  0  0  0
    5.6723   -5.6597    0.0000 C   0  0  0  0  0  0  0  0  0  0  0  0
    4.7647   -5.6597    0.0000 C   0  0  0  0  0  0  0  0  0  0  0  0
    4.4874   -4.7773    0.0000 C   0  0  0  0  0  0  0  0  0  0  0  0
    3.6303   -4.5000    0.0000 C   0  0  0  0  0  0  0  0  0  0  0  0
    3.4286   -3.6176    0.0000 N   0  0  0  0  0  0  0  0  0  0  0  0
    2.5714   -3.3403    0.0000 C   0  0  0  0  0  0  0  0  0  0  0  0
    1.8908   -3.9454    0.0000 O   0  0  0  0  0  0  0  0  0  0  0  0
    2.3950   -2.4580    0.0000 C   0  0  0  0  0  0  0  0  0  0  0  0
    1.5378   -2.1807    0.0000 C   0  0  0  0  0  0  0  0  0  0  0  0
    1.3361   -1.2731    0.0000 C   0  0  0  0  0  0  0  0  0  0  0  0
    2.0168   -0.6681    0.0000 C   0  0  0  0  0  0  0  0  0  0  0  0
    2.8739   -0.9454    0.0000 C   0  0  0  0  0  0  0  0  0  0  0  0
    3.0756   -1.8529    0.0000 C   0  0  0  0  0  0  0  0  0  0  0  0
    3.9328   -2.1303    0.0000 O   0  0  0  0  0  0  0  0  0  0  0  0
    4.1092   -3.0126    0.0000 C   0  0  0  0  0  0  0  0  0  0  0  0
    3.5546   -0.3403    0.0000 Br  0  0  0  0  0  0  0  0  0  0  0  0
    0.8571   -2.7857    0.0000 O   0  0  0  0  0  0  0  0  0  0  0  0
    6.0000   -2.8866    0.0000 C   0  0  0  0  0  0  0  0  0  0  0  0
  2  3  1  0  0  0  0
  3  4  1  0  0  0  0
  4  5  1  0  0  0  0
  5  6  1  0  0  0  0
  6  7  1  0  0  0  0
  3  7  1  0  0  0  0
  7  8  1  0  0  0  0
  8  9  1  0  0  0  0
  9 10  1  0  0  0  0
 10 11  2  0  0  0  0
 10 12  1  0  0  0  0
 12 13  4  0  0  0  0
 13 14  4  0  0  0  0
 14 15  4  0  0  0  0
 15 16  4  0  0  0  0
 16 17  4  0  0  0  0
 12 17  4  0  0  0  0
 17 18  1  0  0  0  0
 18 19  1  0  0  0  0
 16 20  1  0  0  0  0
 13 21  1  0  0  0  0
 21  1  1  0  0  0  0
  2 22  1  0  0  0  0
M  END
>  <MOL_ID>
27
>  <Name_of_compounds>
Remoxipride
>  <Activity_Profiles>
0 0 0 0 0
>  <INITIAL_ID>
128

>  <SUM_activity>
0

$$$$

  Marvin  08130811232D          

 12 12  0  0  0  0            999 V2000
   -1.6742    5.7151    0.0000 O   0  0  0  0  0  0  0  0  0  0  0  0
   -0.9597    5.3026    0.0000 C   0  0  0  0  0  0  0  0  0  0  0  0
   -0.2452    5.7151    0.0000 O   0  0  0  0  0  0  0  0  0  0  0  0
   -0.9597    4.4776    0.0000 C   0  0  0  0  0  0  0  0  0  0  0  0
   -0.2452    4.0651    0.0000 C   0  0  0  0  0  0  0  0  0  0  0  0
   -0.2452    3.2401    0.0000 N   0  0  0  0  0  0  0  0  0  0  0  0
    0.4222    2.7552    0.0000 C   0  0  0  0  0  0  0  0  0  0  0  0
    0.1673    1.9706    0.0000 S   0  0  0  0  0  0  0  0  0  0  0  0
   -0.6577    1.9706    0.0000 C   0  0  0  0  0  0  0  0  0  0  0  0
   -0.9127    2.7552    0.0000 C   0  0  0  0  0  0  0  0  0  0  0  0
   -1.6973    3.0101    0.0000 S   0  0  0  0  0  0  0  0  0  0  0  0
    1.2068    3.0101    0.0000 S   0  0  0  0  0  0  0  0  0  0  0  0
  1  2  2  0  0  0  0
  2  3  1  0  0  0  0
  2  4  1  0  0  0  0
  4  5  1  0  0  0  0
  5  6  1  0  0  0  0
  6  7  1  0  0  0  0
  7  8  1  0  0  0  0
  8  9  1  0  0  0  0
  9 10  1  0  0  0  0
  6 10  1  0  0  0  0
 10 11  2  0  0  0  0
  7 12  2  0  0  0  0
M  END
>  <MOL_ID>
122
>  <Name_of_compounds>
3-(2,4-dithioxo-1,3-thiazolidin-3-yl)propanoic acid
>  <Activity_Profiles>
0 0 0 0 0
>  <INITIAL_ID>
2356

>  <SUM_activity>
0

$$$$

  Marvin  08130811232D          

 16 19  0  0  0  0            999 V2000
    5.3159    1.0483    0.0000 C   0  0  0  0  0  0  0  0  0  0  0  0
    5.7678    0.3581    0.0000 C   0  0  0  0  0  0  0  0  0  0  0  0
    5.3960   -0.3784    0.0000 C   0  0  0  0  0  0  0  0  0  0  0  0
    4.5723   -0.4247    0.0000 N   0  0  0  0  0  0  0  0  0  0  0  0
    4.1204    0.2655    0.0000 C   0  0  0  0  0  0  0  0  0  0  0  0
    4.4922    1.0020    0.0000 C   0  0  0  0  0  0  0  0  0  0  0  0
    3.3757   -0.0920    0.0000 C   0  0  0  0  0  0  0  0  0  0  0  0
    3.7630   -0.8034    0.0000 C   0  0  0  0  0  0  0  0  0  0  0  0
    4.1891   -1.2532    0.0000 C   0  0  0  0  0  0  0  0  0  0  0  0
    3.3963   -1.7233    0.0000 C   0  0  0  0  0  0  0  0  0  0  0  0
    2.6031   -1.3096    0.0000 C   0  0  0  0  0  0  0  0  0  0  0  0
    2.6056   -0.4221    0.0000 C   0  0  0  0  0  0  0  0  0  0  0  0
    2.1279    0.3149    0.0000 C   0  0  0  0  0  0  0  0  0  0  0  0
    2.5951    1.0065    0.0000 C   0  0  0  0  0  0  0  0  0  0  0  0
    2.3288    1.7873    0.0000 O   0  0  0  0  0  0  0  0  0  0  0  0
    3.3665    0.7516    0.0000 O   0  0  0  0  0  0  0  0  0  0  0  0
  1  2  1  0  0  0  0
  2  3  1  0  0  0  0
  3  4  1  0  0  0  0
  4  5  1  0  0  0  0
  5  6  1  0  0  0  0
  1  6  1  0  0  0  0
  5  7  1  0  0  0  0
  7  8  1  0  0  0  0
  8  9  1  0  0  0  0
  4  9  1  0  0  0  0
  9 10  1  0  0  0  0
 10 11  2  0  0  0  0
 11 12  1  0  0  0  0
  7 12  1  0  0  0  0
 12 13  2  0  0  0  0
 13 14  1  0  0  0  0
 14 15  2  0  0  0  0
 14 16  1  0  0  0  0
  7 16  1  0  0  0  0
M  END
>  <MOL_ID>
121
>  <Name_of_compounds>
securinine
>  <Activity_Profiles>
0 0 0 0 0
>  <INITIAL_ID>
2355

>  <SUM_activity>
0

$$$$

  Marvin  08130811232D          

 13 13  0  0  0  0            999 V2000
   -0.0000   -2.4750    0.0000 C   0  0  0  0  0  0  0  0  0  0  0  0
   -0.0000   -1.6500    0.0000 C   0  0  0  0  0  0  0  0  0  0  0  0
   -0.7145   -1.2375    0.0000 N   0  0  0  0  0  0  0  0  0  0  0  0
   -1.4289   -1.6500    0.0000 C   0  0  0  0  0  0  0  0  0  0  0  0
   -2.1434   -1.2375    0.0000 C   0  0  0  0  0  0  0  0  0  0  0  0
    0.7145   -1.2375    0.0000 C   0  0  0  0  0  0  0  0  0  0  0  0
    0.7145   -0.4125    0.0000 C   0  0  0  0  0  0  0  0  0  0  0  0
   -0.0000    0.0000    0.0000 C   0  0  0  0  0  0  0  0  0  0  0  0
   -0.0000    0.8250    0.0000 C   0  0  0  0  0  0  0  0  0  0  0  0
    0.7145    1.2375    0.0000 C   0  0  0  0  0  0  0  0  0  0  0  0
    1.4289    0.8250    0.0000 C   0  0  0  0  0  0  0  0  0  0  0  0
    1.4289    0.0000    0.0000 C   0  0  0  0  0  0  0  0  0  0  0  0
    1.4289   -1.6500    0.0000 O   0  0  0  0  0  0  0  0  0  0  0  0
  1  2  1  0  0  0  0
  2  3  1  0  0  0  0
  3  4  1  0  0  0  0
  4  5  1  0  0  0  0
  2  6  1  0  0  0  0
  6  7  1  0  0  0  0
  7  8  4  0  0  0  0
  8  9  4  0  0  0  0
  9 10  4  0  0  0  0
 10 11  4  0  0  0  0
 11 12  4  0  0  0  0
  7 12  4  0  0  0  0
  6 13  2  0  0  0  0
M  END
>  <MOL_ID>
30
>  <Name_of_compounds>
2-ethylamino-1-phenyl-propan-1-one
>  <Activity_Profiles>
0 0 0 0 0
>  <INITIAL_ID>
381

>  <SUM_activity>
0

$$$$

  Marvin  08130811232D          

 10 10  0  0  0  0            999 V2000
    0.7049   -0.2482    0.0000 C   0  0  0  0  0  0  0  0  0  0  0  0
   -0.1201   -0.2482    0.0000 C   0  0  0  0  0  0  0  0  0  0  0  0
   -0.3750    0.5365    0.0000 C   0  0  0  0  0  0  0  0  0  0  0  0
   -1.1597    0.7914    0.0000 O   0  0  0  0  0  0  0  0  0  0  0  0
    0.2924    1.0214    0.0000 N   0  0  0  0  0  0  0  0  0  0  0  0
    0.9598    0.5365    0.0000 C   0  0  0  0  0  0  0  0  0  0  0  0
    0.2924    1.8464    0.0000 C   0  0  0  0  0  0  0  0  0  0  0  0
   -0.4221    2.2589    0.0000 C   0  0  0  0  0  0  0  0  0  0  0  0
   -1.1366    1.8464    0.0000 O   0  0  0  0  0  0  0  0  0  0  0  0
   -0.4221    3.0839    0.0000 N   0  0  0  0  0  0  0  0  0  0  0  0
  1  2  1  0  0  0  0
  2  3  1  0  0  0  0
  3  4  2  0  0  0  0
  3  5  1  0  0  0  0
  5  6  1  0  0  0  0
  1  6  1  0  0  0  0
  5  7  1  0  0  0  0
  7  8  1  0  0  0  0
  8  9  2  0  0  0  0
  8 10  1  0  0  0  0
M  END
>  <MOL_ID>
126
>  <Name_of_compounds>
piracetam
>  <Activity_Profiles>
0 0 0 0 0
>  <INITIAL_ID>
2666

>  <SUM_activity>
0

$$$$

  Marvin  08130811232D          

 13 14  0  0  0  0            999 V2000
    1.8137   -1.9356    0.0000 Cl  0  0  0  0  0  0  0  0  0  0  0  0
    1.8137   -2.7606    0.0000 C   0  0  0  0  0  0  0  0  0  0  0  0
    2.5281   -3.1731    0.0000 C   0  0  0  0  0  0  0  0  0  0  0  0
    2.5281   -3.9981    0.0000 C   0  0  0  0  0  0  0  0  0  0  0  0
    3.2426   -4.4106    0.0000 N   0  0  0  0  0  0  0  0  0  0  0  0
    3.9571   -3.9981    0.0000 C   0  0  0  0  0  0  0  0  0  0  0  0
    4.6715   -4.4106    0.0000 C   0  0  0  0  0  0  0  0  0  0  0  0
    4.6715   -5.2356    0.0000 N   0  0  0  0  0  0  0  0  0  0  0  0
    3.9571   -5.6481    0.0000 C   0  0  0  0  0  0  0  0  0  0  0  0
    3.2426   -5.2356    0.0000 C   0  0  0  0  0  0  0  0  0  0  0  0
    1.8137   -4.4106    0.0000 C   0  0  0  0  0  0  0  0  0  0  0  0
    1.0992   -3.9981    0.0000 C   0  0  0  0  0  0  0  0  0  0  0  0
    1.0992   -3.1731    0.0000 C   0  0  0  0  0  0  0  0  0  0  0  0
  1  2  1  0  0  0  0
  2  3  4  0  0  0  0
  3  4  4  0  0  0  0
  4  5  1  0  0  0  0
  5  6  1  0  0  0  0
  6  7  1  0  0  0  0
  7  8  1  0  0  0  0
  8  9  1  0  0  0  0
  9 10  1  0  0  0  0
  5 10  1  0  0  0  0
  4 11  4  0  0  0  0
 11 12  4  0  0  0  0
 12 13  4  0  0  0  0
  2 13  4  0  0  0  0
M  END
>  <MOL_ID>
28
>  <Name_of_compounds>
mCPP
>  <Activity_Profiles>
0 0 0 0 0
>  <INITIAL_ID>
129

>  <SUM_activity>
0

$$$$

  Marvin  08130811232D          

 13 14  0  0  0  0            999 V2000
   -0.3847   -1.9356    0.0000 Cl  0  0  0  0  0  0  0  0  0  0  0  0
   -0.3847   -2.7606    0.0000 C   0  0  0  0  0  0  0  0  0  0  0  0
    0.3298   -3.1731    0.0000 C   0  0  0  0  0  0  0  0  0  0  0  0
    0.3298   -3.9981    0.0000 N   0  0  0  0  0  0  0  0  0  0  0  0
   -0.3847   -4.4106    0.0000 C   0  0  0  0  0  0  0  0  0  0  0  0
   -1.0992   -3.9981    0.0000 C   0  0  0  0  0  0  0  0  0  0  0  0
   -1.8137   -4.4106    0.0000 N   0  0  0  0  0  0  0  0  0  0  0  0
   -1.8137   -5.2356    0.0000 C   0  0  0  0  0  0  0  0  0  0  0  0
   -2.5281   -5.6481    0.0000 C   0  0  0  0  0  0  0  0  0  0  0  0
   -3.2426   -5.2356    0.0000 N   0  0  0  0  0  0  0  0  0  0  0  0
   -3.2426   -4.4106    0.0000 C   0  0  0  0  0  0  0  0  0  0  0  0
   -2.5281   -3.9981    0.0000 C   0  0  0  0  0  0  0  0  0  0  0  0
   -1.0992   -3.1731    0.0000 N   0  0  0  0  0  0  0  0  0  0  0  0
  1  2  1  0  0  0  0
  2  3  4  0  0  0  0
  3  4  4  0  0  0  0
  4  5  4  0  0  0  0
  5  6  4  0  0  0  0
  6  7  1  0  0  0  0
  7  8  1  0  0  0  0
  8  9  1  0  0  0  0
  9 10  1  0  0  0  0
 10 11  1  0  0  0  0
 11 12  1  0  0  0  0
  7 12  1  0  0  0  0
  6 13  4  0  0  0  0
  2 13  4  0  0  0  0
M  END
>  <MOL_ID>
29
>  <Name_of_compounds>
MK-212
>  <Activity_Profiles>
0 0 0 0 0
>  <INITIAL_ID>
130

>  <SUM_activity>
0

$$$$

  Marvin  08130811232D          

 13 15  0  0  0  0            999 V2000
    0.5371   -2.1675    0.0000 C   0  0  0  0  0  0  0  0  0  0  0  0
    1.3289   -1.9358    0.0000 C   0  0  0  0  0  0  0  0  0  0  0  0
    0.7680   -1.3353    0.0000 C   0  0  0  0  0  0  0  0  0  0  0  0
    1.6502   -1.5459    0.0000 C   0  0  0  0  0  0  0  0  0  0  0  0
    2.3700   -1.3353    0.0000 C   0  0  0  0  0  0  0  0  0  0  0  0
    2.9309   -1.9358    0.0000 C   0  0  0  0  0  0  0  0  0  0  0  0
    2.0487   -1.7251    0.0000 C   0  0  0  0  0  0  0  0  0  0  0  0
    2.7823   -2.7440    0.0000 C   0  0  0  0  0  0  0  0  0  0  0  0
    2.0625   -2.9547    0.0000 C   0  0  0  0  0  0  0  0  0  0  0  0
    1.4964   -2.3556    0.0000 C   0  0  0  0  0  0  0  0  0  0  0  0
    1.1803   -2.7440    0.0000 C   0  0  0  0  0  0  0  0  0  0  0  0
    2.0832   -3.7794    0.0000 N   0  0  0  0  0  0  0  0  0  0  0  0
    3.7227   -1.7041    0.0000 C   0  0  0  0  0  0  0  0  0  0  0  0
  1  2  1  0  0  0  0
  2  3  1  0  0  0  0
  3  4  1  0  0  0  0
  4  5  1  0  0  0  0
  5  6  1  0  0  0  0
  6  7  1  0  0  0  0
  2  7  1  0  0  0  0
  6  8  1  0  0  0  0
  8  9  1  0  0  0  0
  9 10  1  0  0  0  0
  4 10  1  0  0  0  0
  9 11  1  0  0  0  0
  2 11  1  0  0  0  0
  9 12  1  0  0  0  0
  6 13  1  0  0  0  0
M  END
>  <MOL_ID>
45
>  <Name_of_compounds>
Memantine
>  <Activity_Profiles>
0 0 0 0 0
>  <INITIAL_ID>
633

>  <SUM_activity>
0

$$$$

  Marvin  08130811232D          

 19 20  0  0  0  0            999 V2000
   -1.0998    1.3487    0.0000 C   0  0  0  0  0  0  0  0  0  0  0  0
   -1.0998    0.5237    0.0000 C   0  0  0  0  0  0  0  0  0  0  0  0
   -1.8143    0.1112    0.0000 C   0  0  0  0  0  0  0  0  0  0  0  0
   -2.5288    0.5237    0.0000 N   0  0  0  0  0  0  0  0  0  0  0  0
   -2.6150    1.3441    0.0000 C   0  0  0  0  0  0  0  0  0  0  0  0
   -3.4220    1.5157    0.0000 N   0  0  0  0  0  0  0  0  0  0  0  0
   -3.8345    0.8012    0.0000 C   0  0  0  0  0  0  0  0  0  0  0  0
   -3.2824    0.1881    0.0000 C   0  0  0  0  0  0  0  0  0  0  0  0
   -3.5374   -0.5965    0.0000 N   0  0  0  0  0  0  0  0  0  0  0  0
   -4.3444   -0.7680    0.0000 C   0  0  0  0  0  0  0  0  0  0  0  0
   -4.8964   -0.1549    0.0000 N   0  0  0  0  0  0  0  0  0  0  0  0
   -4.6415    0.6297    0.0000 C   0  0  0  0  0  0  0  0  0  0  0  0
   -5.1935    1.2428    0.0000 N   0  0  0  0  0  0  0  0  0  0  0  0
   -0.3854    0.1112    0.0000 O   0  0  0  0  0  0  0  0  0  0  0  0
    0.3291    0.5237    0.0000 C   0  0  0  0  0  0  0  0  0  0  0  0
    1.0436    0.1112    0.0000 P   0  0  0  0  0  0  0  0  0  0  0  0
    0.6311   -0.6033    0.0000 O   0  0  0  0  0  0  0  0  0  0  0  0
    1.4561    0.8256    0.0000 O   0  0  0  0  0  0  0  0  0  0  0  0
    1.7581   -0.3013    0.0000 O   0  0  0  0  0  0  0  0  0  0  0  0
  1  2  1  0  0  0  0
  2  3  1  0  0  0  0
  3  4  1  0  0  0  0
  4  5  4  0  0  0  0
  5  6  4  0  0  0  0
  6  7  4  0  0  0  0
  7  8  4  0  0  0  0
  4  8  4  0  0  0  0
  8  9  4  0  0  0  0
  9 10  4  0  0  0  0
 10 11  4  0  0  0  0
 11 12  4  0  0  0  0
  7 12  4  0  0  0  0
 12 13  1  0  0  0  0
  2 14  1  0  0  0  0
 14 15  1  0  0  0  0
 15 16  1  0  0  0  0
 16 17  2  0  0  0  0
 16 18  1  0  0  0  0
 16 19  1  0  0  0  0
M  END
>  <MOL_ID>
118
>  <Name_of_compounds>
Tenofovir
>  <Activity_Profiles>
0 0 0 0 0
>  <INITIAL_ID>
2323

>  <SUM_activity>
0

$$$$

  Marvin  08130811232D          

 22 23  0  0  0  0            999 V2000
    1.0392  -10.6500    0.0000 C   0  0  0  0  0  0  0  0  0  0  0  0
    0.3248  -10.2375    0.0000 C   0  0  0  0  0  0  0  0  0  0  0  0
    0.3248   -9.4125    0.0000 N   0  0  0  0  0  0  0  0  0  0  0  0
   -0.3897   -9.0000    0.0000 C   0  0  0  0  0  0  0  0  0  0  0  0
   -1.1042   -9.4125    0.0000 C   0  0  0  0  0  0  0  0  0  0  0  0
    1.0392   -9.0000    0.0000 C   0  0  0  0  0  0  0  0  0  0  0  0
    1.7537   -9.4125    0.0000 C   0  0  0  0  0  0  0  0  0  0  0  0
    2.4682   -9.0000    0.0000 C   0  0  0  0  0  0  0  0  0  0  0  0
    3.1826   -9.4125    0.0000 C   0  0  0  0  0  0  0  0  0  0  0  0
    3.1826  -10.2375    0.0000 C   0  0  0  0  0  0  0  0  0  0  0  0
    3.8971   -9.0000    0.0000 N   0  0  0  0  0  0  0  0  0  0  0  0
    4.6116   -9.4125    0.0000 C   0  0  0  0  0  0  0  0  0  0  0  0
    5.3261   -9.0000    0.0000 C   0  0  0  0  0  0  0  0  0  0  0  0
    5.3261   -8.1750    0.0000 C   0  0  0  0  0  0  0  0  0  0  0  0
    6.0405   -7.7625    0.0000 C   0  0  0  0  0  0  0  0  0  0  0  0
    6.7550   -8.1750    0.0000 C   0  0  0  0  0  0  0  0  0  0  0  0
    6.7550   -9.0000    0.0000 C   0  0  0  0  0  0  0  0  0  0  0  0
    6.0405   -9.4125    0.0000 C   0  0  0  0  0  0  0  0  0  0  0  0
    6.0405  -10.2375    0.0000 N   0  0  0  0  0  0  0  0  0  0  0  0
    5.3261  -10.6500    0.0000 C   0  0  0  0  0  0  0  0  0  0  0  0
    4.6116  -10.2375    0.0000 C   0  0  0  0  0  0  0  0  0  0  0  0
    7.4695   -7.7625    0.0000 Cl  0  0  0  0  0  0  0  0  0  0  0  0
  1  2  1  0  0  0  0
  2  3  1  0  0  0  0
  3  4  1  0  0  0  0
  4  5  1  0  0  0  0
  3  6  1  0  0  0  0
  6  7  1  0  0  0  0
  7  8  1  0  0  0  0
  8  9  1  0  0  0  0
  9 10  1  0  0  0  0
  9 11  1  0  0  0  0
 11 12  1  0  0  0  0
 12 13  4  0  0  0  0
 13 14  4  0  0  0  0
 14 15  4  0  0  0  0
 15 16  4  0  0  0  0
 16 17  4  0  0  0  0
 17 18  4  0  0  0  0
 13 18  4  0  0  0  0
 18 19  4  0  0  0  0
 19 20  4  0  0  0  0
 20 21  4  0  0  0  0
 12 21  4  0  0  0  0
 16 22  1  0  0  0  0
M  END
>  <MOL_ID>
46
>  <Name_of_compounds>
Chloroquine
>  <Activity_Profiles>
0 0 0 0 0
>  <INITIAL_ID>
661

>  <SUM_activity>
0

$$$$

  Marvin  08130811232D          

 11 13  0  0  0  0            999 V2000
    0.7034   -1.3348    0.0000 C   0  0  0  0  0  0  0  0  0  0  0  0
    1.2643   -1.9354    0.0000 C   0  0  0  0  0  0  0  0  0  0  0  0
    1.9841   -1.7247    0.0000 C   0  0  0  0  0  0  0  0  0  0  0  0
    2.8663   -1.9354    0.0000 C   0  0  0  0  0  0  0  0  0  0  0  0
    2.3054   -1.3348    0.0000 C   0  0  0  0  0  0  0  0  0  0  0  0
    1.5856   -1.5455    0.0000 C   0  0  0  0  0  0  0  0  0  0  0  0
    1.4319   -2.3552    0.0000 C   0  0  0  0  0  0  0  0  0  0  0  0
    1.9979   -2.9543    0.0000 C   0  0  0  0  0  0  0  0  0  0  0  0
    1.1157   -2.7436    0.0000 C   0  0  0  0  0  0  0  0  0  0  0  0
    2.7177   -2.7436    0.0000 C   0  0  0  0  0  0  0  0  0  0  0  0
    2.0187   -3.7790    0.0000 N   0  0  0  0  0  0  0  0  0  0  0  0
  1  2  1  0  0  0  0
  2  3  1  0  0  0  0
  3  4  1  0  0  0  0
  4  5  1  0  0  0  0
  5  6  1  0  0  0  0
  1  6  1  0  0  0  0
  6  7  1  0  0  0  0
  7  8  1  0  0  0  0
  8  9  1  0  0  0  0
  2  9  1  0  0  0  0
  8 10  1  0  0  0  0
  4 10  1  0  0  0  0
  8 11  1  0  0  0  0
M  END
>  <MOL_ID>
43
>  <Name_of_compounds>
Amantadine
>  <Activity_Profiles>
0 0 0 0 0
>  <INITIAL_ID>
630

>  <SUM_activity>
0

$$$$

  Marvin  08130811232D          

 19 22  0  0  0  0            999 V2000
    5.3207   -2.0835    0.0000 O   0  0  0  0  0  0  0  0  0  0  0  0
    6.1025   -2.3471    0.0000 C   0  0  0  0  0  0  0  0  0  0  0  0
    6.7216   -1.8018    0.0000 N   0  0  0  0  0  0  0  0  0  0  0  0
    7.5034   -2.0654    0.0000 C   0  0  0  0  0  0  0  0  0  0  0  0
    8.1225   -1.5202    0.0000 C   0  0  0  0  0  0  0  0  0  0  0  0
    8.9043   -1.7837    0.0000 C   0  0  0  0  0  0  0  0  0  0  0  0
    9.6233   -1.3791    0.0000 O   0  0  0  0  0  0  0  0  0  0  0  0
   10.2303   -1.9379    0.0000 C   0  0  0  0  0  0  0  0  0  0  0  0
   11.0516   -1.8607    0.0000 C   0  0  0  0  0  0  0  0  0  0  0  0
   11.5292   -2.5335    0.0000 C   0  0  0  0  0  0  0  0  0  0  0  0
   11.1853   -3.2834    0.0000 C   0  0  0  0  0  0  0  0  0  0  0  0
   10.3639   -3.3606    0.0000 C   0  0  0  0  0  0  0  0  0  0  0  0
    9.8864   -2.6878    0.0000 C   0  0  0  0  0  0  0  0  0  0  0  0
    9.0669   -2.5925    0.0000 C   0  0  0  0  0  0  0  0  0  0  0  0
    8.4478   -3.1378    0.0000 C   0  0  0  0  0  0  0  0  0  0  0  0
    7.6660   -2.8742    0.0000 C   0  0  0  0  0  0  0  0  0  0  0  0
    7.0469   -3.4195    0.0000 C   0  0  0  0  0  0  0  0  0  0  0  0
    7.2095   -4.2283    0.0000 C   0  0  0  0  0  0  0  0  0  0  0  0
    6.2651   -3.1559    0.0000 C   0  0  0  0  0  0  0  0  0  0  0  0
  1  2  1  0  0  0  0
  2  3  4  0  0  0  0
  3  4  4  0  0  0  0
  4  5  4  0  0  0  0
  5  6  4  0  0  0  0
  6  7  4  0  0  0  0
  7  8  4  0  0  0  0
  8  9  4  0  0  0  0
  9 10  4  0  0  0  0
 10 11  4  0  0  0  0
 11 12  4  0  0  0  0
 12 13  4  0  0  0  0
  8 13  4  0  0  0  0
  6 14  4  0  0  0  0
 13 14  4  0  0  0  0
 14 15  4  0  0  0  0
 15 16  4  0  0  0  0
  4 16  4  0  0  0  0
 16 17  4  0  0  0  0
 17 18  1  0  0  0  0
 17 19  4  0  0  0  0
  2 19  4  0  0  0  0
M  END
>  <MOL_ID>
123
>  <Name_of_compounds>
4-methyl[1]benzofuro[3,2-g]quinolin-2-ol
>  <Activity_Profiles>
0 0 0 0 0
>  <INITIAL_ID>
2357

>  <SUM_activity>
0

$$$$

  Marvin  08130811232D          

 16 18  0  0  0  0            999 V2000
    5.8231    1.1742    0.0000 O   0  0  0  0  0  0  0  0  0  0  0  0
    6.1811    0.4309    0.0000 C   0  0  0  0  0  0  0  0  0  0  0  0
    7.0061    0.4309    0.0000 N   0  0  0  0  0  0  0  0  0  0  0  0
    7.5204   -0.2142    0.0000 C   0  0  0  0  0  0  0  0  0  0  0  0
    8.3088    0.0290    0.0000 C   0  0  0  0  0  0  0  0  0  0  0  0
    8.9136   -0.5321    0.0000 C   0  0  0  0  0  0  0  0  0  0  0  0
    8.7300   -1.3364    0.0000 C   0  0  0  0  0  0  0  0  0  0  0  0
    7.9416   -1.5796    0.0000 C   0  0  0  0  0  0  0  0  0  0  0  0
    7.3369   -1.0185    0.0000 C   0  0  0  0  0  0  0  0  0  0  0  0
    6.5936   -1.3764    0.0000 S   0  0  0  0  0  0  0  0  0  0  0  0
    5.8503   -1.0185    0.0000 C   0  0  0  0  0  0  0  0  0  0  0  0
    5.2455   -1.5796    0.0000 C   0  0  0  0  0  0  0  0  0  0  0  0
    4.4571   -1.3364    0.0000 C   0  0  0  0  0  0  0  0  0  0  0  0
    4.2736   -0.5321    0.0000 C   0  0  0  0  0  0  0  0  0  0  0  0
    4.8783    0.0290    0.0000 C   0  0  0  0  0  0  0  0  0  0  0  0
    5.6667   -0.2142    0.0000 C   0  0  0  0  0  0  0  0  0  0  0  0
  1  2  2  0  0  0  0
  2  3  1  0  0  0  0
  3  4  1  0  0  0  0
  4  5  4  0  0  0  0
  5  6  4  0  0  0  0
  6  7  4  0  0  0  0
  7  8  4  0  0  0  0
  8  9  4  0  0  0  0
  4  9  4  0  0  0  0
  9 10  1  0  0  0  0
 10 11  1  0  0  0  0
 11 12  4  0  0  0  0
 12 13  4  0  0  0  0
 13 14  4  0  0  0  0
 14 15  4  0  0  0  0
 15 16  4  0  0  0  0
  2 16  1  0  0  0  0
 11 16  4  0  0  0  0
M  END
>  <MOL_ID>
135
>  <Name_of_compounds>
DBTO
>  <Activity_Profiles>
0 0 0 0 0
>  <INITIAL_ID>
3253

>  <SUM_activity>
0

$$$$

  Marvin  08130811232D          

 23 26  0  0  0  0            999 V2000
    1.9093    1.4707    0.0000 Cl  0  0  0  0  0  0  0  0  0  0  0  0
    2.6238    1.8832    0.0000 C   0  0  0  0  0  0  0  0  0  0  0  0
    2.6238    2.7082    0.0000 C   0  0  0  0  0  0  0  0  0  0  0  0
    3.3383    3.1207    0.0000 C   0  0  0  0  0  0  0  0  0  0  0  0
    3.3383    3.9457    0.0000 C   0  0  0  0  0  0  0  0  0  0  0  0
    2.6238    4.3582    0.0000 S   0  0  0  0  0  0  0  0  0  0  0  0
    2.6238    5.1832    0.0000 C   0  0  0  0  0  0  0  0  0  0  0  0
    1.9093    5.5957    0.0000 N   0  0  0  0  0  0  0  0  0  0  0  0
    1.9093    6.4207    0.0000 C   0  0  0  0  0  0  0  0  0  0  0  0
    2.6238    6.8332    0.0000 N   0  0  0  0  0  0  0  0  0  0  0  0
    2.6238    7.6582    0.0000 C   0  0  0  0  0  0  0  0  0  0  0  0
    3.3383    8.0707    0.0000 C   0  0  0  0  0  0  0  0  0  0  0  0
    3.7508    8.7851    0.0000 C   0  0  0  0  0  0  0  0  0  0  0  0
    4.1633    8.0707    0.0000 C   0  0  0  0  0  0  0  0  0  0  0  0
    3.3383    6.4207    0.0000 C   0  0  0  0  0  0  0  0  0  0  0  0
    3.3383    5.5957    0.0000 N   0  0  0  0  0  0  0  0  0  0  0  0
    4.0527    2.7082    0.0000 C   0  0  0  0  0  0  0  0  0  0  0  0
    4.7672    3.1207    0.0000 O   0  0  0  0  0  0  0  0  0  0  0  0
    5.4817    2.7082    0.0000 C   0  0  0  0  0  0  0  0  0  0  0  0
    5.4817    1.8832    0.0000 O   0  0  0  0  0  0  0  0  0  0  0  0
    4.7672    1.4707    0.0000 C   0  0  0  0  0  0  0  0  0  0  0  0
    4.0527    1.8832    0.0000 C   0  0  0  0  0  0  0  0  0  0  0  0
    3.3383    1.4707    0.0000 C   0  0  0  0  0  0  0  0  0  0  0  0
  1  2  1  0  0  0  0
  2  3  4  0  0  0  0
  3  4  4  0  0  0  0
  4  5  1  0  0  0  0
  5  6  1  0  0  0  0
  6  7  1  0  0  0  0
  7  8  2  0  0  0  0
  8  9  1  0  0  0  0
  9 10  1  0  0  0  0
 10 11  1  0  0  0  0
 11 12  1  0  0  0  0
 12 13  1  0  0  0  0
 13 14  1  0  0  0  0
 12 14  1  0  0  0  0
 10 15  1  0  0  0  0
 15 16  1  0  0  0  0
  7 16  1  0  0  0  0
  4 17  4  0  0  0  0
 17 18  1  0  0  0  0
 18 19  1  0  0  0  0
 19 20  1  0  0  0  0
 20 21  1  0  0  0  0
 17 22  4  0  0  0  0
 21 22  1  0  0  0  0
 22 23  4  0  0  0  0
  2 23  4  0  0  0  0
M  END
>  <MOL_ID>
124
>  <Name_of_compounds>
6-(((6-chloro-4H-1,3-benzodioxin-8-yl)methyl)thio)-3-(cyclopropylmethyl)-1,2,3,4-tetrahydro-1,3,5-triazine 
>  <Activity_Profiles>
0 0 0 0 0
>  <INITIAL_ID>
2359

>  <SUM_activity>
0

$$$$

  Marvin  08130811232D          

 11 10  0  0  0  0            999 V2000
    2.9324   -2.0015    0.0000 O   0  0  0  0  0  0  0  0  0  0  0  0
    3.3449   -2.7159    0.0000 S   0  0  0  0  0  0  0  0  0  0  0  0
    4.0593   -2.3034    0.0000 C   0  0  0  0  0  0  0  0  0  0  0  0
    4.7738   -2.7159    0.0000 C   0  0  0  0  0  0  0  0  0  0  0  0
    5.4883   -2.3034    0.0000 C   0  0  0  0  0  0  0  0  0  0  0  0
    6.2027   -2.7159    0.0000 N   0  0  0  0  0  0  0  0  0  0  0  0
    6.9172   -2.3034    0.0000 C   0  0  0  0  0  0  0  0  0  0  0  0
    6.9172   -1.4784    0.0000 C   0  0  0  0  0  0  0  0  0  0  0  0
    7.6317   -2.7159    0.0000 O   0  0  0  0  0  0  0  0  0  0  0  0
    2.6304   -3.1284    0.0000 O   0  0  0  0  0  0  0  0  0  0  0  0
    3.7574   -3.4304    0.0000 O   0  0  0  0  0  0  0  0  0  0  0  0
  1  2  2  0  0  0  0
  2  3  1  0  0  0  0
  3  4  1  0  0  0  0
  4  5  1  0  0  0  0
  5  6  1  0  0  0  0
  6  7  1  0  0  0  0
  7  8  1  0  0  0  0
  7  9  2  0  0  0  0
  2 10  1  0  0  0  0
  2 11  2  0  0  0  0
M  END
>  <MOL_ID>
136
>  <Name_of_compounds>
Acamprosate
>  <Activity_Profiles>
0 0 0 0 0
>  <INITIAL_ID>
3262

>  <SUM_activity>
0

$$$$

  Marvin  08130811232D          

 25 27  0  0  0  0            999 V2000
    2.3878   -5.0741    0.0000 C   0  0  0  0  0  0  0  0  0  0  0  0
    3.1023   -5.4866    0.0000 N   0  0  0  0  0  0  0  0  0  0  0  0
    3.8168   -5.0741    0.0000 C   0  0  0  0  0  0  0  0  0  0  0  0
    4.5313   -5.4866    0.0000 C   0  0  0  0  0  0  0  0  0  0  0  0
    5.2457   -5.0741    0.0000 O   0  0  0  0  0  0  0  0  0  0  0  0
    5.9602   -5.4866    0.0000 C   0  0  0  0  0  0  0  0  0  0  0  0
    6.6747   -5.0741    0.0000 C   0  0  0  0  0  0  0  0  0  0  0  0
    7.3891   -5.4866    0.0000 C   0  0  0  0  0  0  0  0  0  0  0  0
    7.3891   -6.3116    0.0000 C   0  0  0  0  0  0  0  0  0  0  0  0
    6.6747   -6.7241    0.0000 C   0  0  0  0  0  0  0  0  0  0  0  0
    5.9602   -6.3116    0.0000 C   0  0  0  0  0  0  0  0  0  0  0  0
    8.1036   -6.7241    0.0000 C   0  0  0  0  0  0  0  0  0  0  0  0
    8.1036   -7.5491    0.0000 C   0  0  0  0  0  0  0  0  0  0  0  0
    8.7710   -8.0340    0.0000 C   0  0  0  0  0  0  0  0  0  0  0  0
    9.5557   -7.7791    0.0000 O   0  0  0  0  0  0  0  0  0  0  0  0
    8.5161   -8.8186    0.0000 N   0  0  0  0  0  0  0  0  0  0  0  0
    7.6911   -8.8186    0.0000 C   0  0  0  0  0  0  0  0  0  0  0  0
    7.2062   -9.4861    0.0000 O   0  0  0  0  0  0  0  0  0  0  0  0
    7.4362   -8.0340    0.0000 S   0  0  0  0  0  0  0  0  0  0  0  0
    3.1023   -6.3116    0.0000 C   0  0  0  0  0  0  0  0  0  0  0  0
    3.8168   -6.7241    0.0000 C   0  0  0  0  0  0  0  0  0  0  0  0
    3.8168   -7.5491    0.0000 C   0  0  0  0  0  0  0  0  0  0  0  0
    3.1023   -7.9616    0.0000 C   0  0  0  0  0  0  0  0  0  0  0  0
    2.3878   -7.5491    0.0000 C   0  0  0  0  0  0  0  0  0  0  0  0
    2.3878   -6.7241    0.0000 N   0  0  0  0  0  0  0  0  0  0  0  0
  1  2  1  0  0  0  0
  2  3  1  0  0  0  0
  3  4  1  0  0  0  0
  4  5  1  0  0  0  0
  5  6  1  0  0  0  0
  6  7  4  0  0  0  0
  7  8  4  0  0  0  0
  8  9  4  0  0  0  0
  9 10  4  0  0  0  0
 10 11  4  0  0  0  0
  6 11  4  0  0  0  0
  9 12  1  0  0  0  0
 12 13  1  0  0  0  0
 13 14  1  0  0  0  0
 14 15  2  0  0  0  0
 14 16  1  0  0  0  0
 16 17  1  0  0  0  0
 17 18  2  0  0  0  0
 17 19  1  0  0  0  0
 13 19  1  0  0  0  0
  2 20  1  0  0  0  0
 20 21  4  0  0  0  0
 21 22  4  0  0  0  0
 22 23  4  0  0  0  0
 23 24  4  0  0  0  0
 24 25  4  0  0  0  0
 20 25  4  0  0  0  0
M  END
>  <MOL_ID>
142
>  <Name_of_compounds>
Rosiglitazone
>  <Activity_Profiles>
0 0 0 0 0
>  <INITIAL_ID>
7826

>  <SUM_activity>
0

$$$$

  Marvin  08130811232D          

 11 11  0  0  0  0            999 V2000
    0.5685   -0.0427    0.0000 C   0  0  0  0  0  0  0  0  0  0  0  0
    0.3136   -0.8273    0.0000 C   0  0  0  0  0  0  0  0  0  0  0  0
   -0.5114   -0.8273    0.0000 C   0  0  0  0  0  0  0  0  0  0  0  0
   -0.7664   -0.0427    0.0000 N   0  0  0  0  0  0  0  0  0  0  0  0
   -0.0989    0.4422    0.0000 C   0  0  0  0  0  0  0  0  0  0  0  0
   -0.0989    1.2672    0.0000 O   0  0  0  0  0  0  0  0  0  0  0  0
   -1.5510    0.2123    0.0000 C   0  0  0  0  0  0  0  0  0  0  0  0
   -2.1641   -0.3398    0.0000 C   0  0  0  0  0  0  0  0  0  0  0  0
   -1.9926   -1.1467    0.0000 O   0  0  0  0  0  0  0  0  0  0  0  0
   -2.9487   -0.0848    0.0000 N   0  0  0  0  0  0  0  0  0  0  0  0
    0.7985   -1.4947    0.0000 O   0  0  0  0  0  0  0  0  0  0  0  0
  1  2  1  0  0  0  0
  2  3  1  0  0  0  0
  3  4  1  0  0  0  0
  4  5  1  0  0  0  0
  1  5  1  0  0  0  0
  5  6  2  0  0  0  0
  4  7  1  0  0  0  0
  7  8  1  0  0  0  0
  8  9  2  0  0  0  0
  8 10  1  0  0  0  0
  2 11  1  0  0  0  0
M  END
>  <MOL_ID>
128
>  <Name_of_compounds>
oxiracetam
>  <Activity_Profiles>
0 0 0 0 0
>  <INITIAL_ID>
2668

>  <SUM_activity>
0

$$$$

  Marvin  08130811232D          

 11 11  0  0  1  0            999 V2000
    0.4547    1.1625    0.0000 C   0  0  0  0  0  0  0  0  0  0  0  0
    0.4547    0.3375    0.0000 C   0  0  2  0  0  0  0  0  0  0  0  0
    1.1691   -0.0750    0.0000 C   0  0  0  0  0  0  0  0  0  0  0  0
    1.1691   -0.9000    0.0000 C   0  0  0  0  0  0  0  0  0  0  0  0
    0.4547   -1.3125    0.0000 C   0  0  2  0  0  0  0  0  0  0  0  0
    0.4547   -2.1375    0.0000 C   0  0  0  0  0  0  0  0  0  0  0  0
   -0.2598   -2.5500    0.0000 C   0  0  0  0  0  0  0  0  0  0  0  0
    1.1691   -2.5500    0.0000 C   0  0  0  0  0  0  0  0  0  0  0  0
   -0.2598   -0.9000    0.0000 C   0  0  1  0  0  0  0  0  0  0  0  0
   -0.9743   -1.3125    0.0000 O   0  0  0  0  0  0  0  0  0  0  0  0
   -0.2598   -0.0750    0.0000 C   0  0  0  0  0  0  0  0  0  0  0  0
  2  1  1  6  0  0  0
  2  3  1  0  0  0  0
  3  4  1  0  0  0  0
  4  5  1  0  0  0  0
  5  6  1  6  0  0  0
  6  7  1  0  0  0  0
  6  8  1  0  0  0  0
  5  9  1  0  0  0  0
  9 10  1  1  0  0  0
  9 11  1  0  0  0  0
  2 11  1  0  0  0  0
M  END
>  <MOL_ID>
41
>  <Name_of_compounds>
(+) isomenthol
>  <Activity_Profiles>
0 0 0 0 0
>  <INITIAL_ID>
607

>  <SUM_activity>
0

$$$$

  Marvin  08130811232D          

 11 11  0  0  1  0            999 V2000
    0.4547    1.1625    0.0000 C   0  0  0  0  0  0  0  0  0  0  0  0
    0.4547    0.3375    0.0000 C   0  0  2  0  0  0  0  0  0  0  0  0
    1.1691   -0.0750    0.0000 C   0  0  0  0  0  0  0  0  0  0  0  0
    1.1691   -0.9000    0.0000 C   0  0  0  0  0  0  0  0  0  0  0  0
    0.4547   -1.3125    0.0000 C   0  0  1  0  0  0  0  0  0  0  0  0
    0.4547   -2.1375    0.0000 C   0  0  0  0  0  0  0  0  0  0  0  0
   -0.2598   -2.5500    0.0000 C   0  0  0  0  0  0  0  0  0  0  0  0
    1.1691   -2.5500    0.0000 C   0  0  0  0  0  0  0  0  0  0  0  0
   -0.2598   -0.9000    0.0000 C   0  0  1  0  0  0  0  0  0  0  0  0
   -0.9743   -1.3125    0.0000 O   0  0  0  0  0  0  0  0  0  0  0  0
   -0.2598   -0.0750    0.0000 C   0  0  0  0  0  0  0  0  0  0  0  0
  2  1  1  6  0  0  0
  2  3  1  0  0  0  0
  3  4  1  0  0  0  0
  4  5  1  0  0  0  0
  5  6  1  1  0  0  0
  6  7  1  0  0  0  0
  6  8  1  0  0  0  0
  5  9  1  0  0  0  0
  9 10  1  1  0  0  0
  9 11  1  0  0  0  0
  2 11  1  0  0  0  0
M  END
>  <MOL_ID>
39
>  <Name_of_compounds>
(+) Neomenthol
>  <Activity_Profiles>
0 0 0 0 0
>  <INITIAL_ID>
605

>  <SUM_activity>
0

$$$$

  Marvin  08130811232D          

 11 11  0  0  1  0            999 V2000
    0.4547    1.1625    0.0000 C   0  0  0  0  0  0  0  0  0  0  0  0
    0.4547    0.3375    0.0000 C   0  0  1  0  0  0  0  0  0  0  0  0
    1.1691   -0.0750    0.0000 C   0  0  0  0  0  0  0  0  0  0  0  0
    1.1691   -0.9000    0.0000 C   0  0  0  0  0  0  0  0  0  0  0  0
    0.4547   -1.3125    0.0000 C   0  0  2  0  0  0  0  0  0  0  0  0
    0.4547   -2.1375    0.0000 C   0  0  0  0  0  0  0  0  0  0  0  0
   -0.2598   -2.5500    0.0000 C   0  0  0  0  0  0  0  0  0  0  0  0
    1.1691   -2.5500    0.0000 C   0  0  0  0  0  0  0  0  0  0  0  0
   -0.2598   -0.9000    0.0000 C   0  0  2  0  0  0  0  0  0  0  0  0
   -0.9743   -1.3125    0.0000 O   0  0  0  0  0  0  0  0  0  0  0  0
   -0.2598   -0.0750    0.0000 C   0  0  0  0  0  0  0  0  0  0  0  0
  2  1  1  1  0  0  0
  2  3  1  0  0  0  0
  3  4  1  0  0  0  0
  4  5  1  0  0  0  0
  5  6  1  6  0  0  0
  6  7  1  0  0  0  0
  6  8  1  0  0  0  0
  5  9  1  0  0  0  0
  9 10  1  6  0  0  0
  9 11  1  0  0  0  0
  2 11  1  0  0  0  0
M  END
>  <MOL_ID>
40
>  <Name_of_compounds>
(-) Neomenthol
>  <Activity_Profiles>
0 0 0 0 0
>  <INITIAL_ID>
606

>  <SUM_activity>
0

$$$$

  Marvin  08130811232D          

 18 19  0  0  0  0            999 V2000
   -4.2868   -0.0000    0.0000 C   0  0  0  0  0  0  0  0  0  0  0  0
   -3.5724   -0.4125    0.0000 C   0  0  0  0  0  0  0  0  0  0  0  0
   -3.5724   -1.2375    0.0000 O   0  0  0  0  0  0  0  0  0  0  0  0
   -2.8579   -0.0000    0.0000 N   0  0  0  0  0  0  0  0  0  0  0  0
   -2.1434   -0.4125    0.0000 C   0  0  0  0  0  0  0  0  0  0  0  0
   -1.4289   -0.0000    0.0000 C   0  0  0  0  0  0  0  0  0  0  0  0
   -0.7145   -0.4125    0.0000 C   0  0  0  0  0  0  0  0  0  0  0  0
   -0.7145   -1.2375    0.0000 C   0  0  0  0  0  0  0  0  0  0  0  0
   -0.0000   -1.6500    0.0000 C   0  0  0  0  0  0  0  0  0  0  0  0
    0.7145   -1.2375    0.0000 C   0  0  0  0  0  0  0  0  0  0  0  0
    0.7145   -0.4125    0.0000 C   0  0  0  0  0  0  0  0  0  0  0  0
   -0.0000   -0.0000    0.0000 C   0  0  0  0  0  0  0  0  0  0  0  0
   -0.0000    0.8250    0.0000 C   0  0  0  0  0  0  0  0  0  0  0  0
    0.7145    1.2375    0.0000 C   0  0  0  0  0  0  0  0  0  0  0  0
    1.4289    0.8250    0.0000 C   0  0  0  0  0  0  0  0  0  0  0  0
    1.4289   -0.0000    0.0000 C   0  0  0  0  0  0  0  0  0  0  0  0
    0.7145    2.0625    0.0000 O   0  0  0  0  0  0  0  0  0  0  0  0
    1.4289    2.4750    0.0000 C   0  0  0  0  0  0  0  0  0  0  0  0
  1  2  1  0  0  0  0
  2  3  2  0  0  0  0
  2  4  1  0  0  0  0
  4  5  1  0  0  0  0
  5  6  1  0  0  0  0
  6  7  1  0  0  0  0
  7  8  4  0  0  0  0
  8  9  4  0  0  0  0
  9 10  4  0  0  0  0
 10 11  4  0  0  0  0
 11 12  4  0  0  0  0
  7 12  4  0  0  0  0
 12 13  4  0  0  0  0
 13 14  4  0  0  0  0
 14 15  4  0  0  0  0
 15 16  4  0  0  0  0
 11 16  4  0  0  0  0
 14 17  1  0  0  0  0
 17 18  1  0  0  0  0
M  END
>  <MOL_ID>
133
>  <Name_of_compounds>
Agomelatine
>  <Activity_Profiles>
0 0 0 0 0
>  <INITIAL_ID>
3250

>  <SUM_activity>
0

$$$$

  Marvin  08130811232D          

 11 11  0  0  1  0            999 V2000
    0.4547    1.1625    0.0000 C   0  0  0  0  0  0  0  0  0  0  0  0
    0.4547    0.3375    0.0000 C   0  0  2  0  0  0  0  0  0  0  0  0
    1.1691   -0.0750    0.0000 C   0  0  0  0  0  0  0  0  0  0  0  0
    1.1691   -0.9000    0.0000 C   0  0  0  0  0  0  0  0  0  0  0  0
    0.4547   -1.3125    0.0000 C   0  0  2  0  0  0  0  0  0  0  0  0
   -0.2598   -0.9000    0.0000 C   0  0  1  0  0  0  0  0  0  0  0  0
   -0.2598   -0.0750    0.0000 C   0  0  0  0  0  0  0  0  0  0  0  0
   -0.9743   -1.3125    0.0000 O   0  0  0  0  0  0  0  0  0  0  0  0
    0.4547   -2.1375    0.0000 C   0  0  0  0  0  0  0  0  0  0  0  0
   -0.2598   -2.5500    0.0000 C   0  0  0  0  0  0  0  0  0  0  0  0
    1.1691   -2.5500    0.0000 C   0  0  0  0  0  0  0  0  0  0  0  0
  2  1  1  6  0  0  0
  2  3  1  0  0  0  0
  3  4  1  0  0  0  0
  4  5  1  0  0  0  0
  5  6  1  0  0  0  0
  6  7  1  0  0  0  0
  2  7  1  0  0  0  0
  6  8  1  6  0  0  0
  5  9  1  1  0  0  0
  9 10  1  0  0  0  0
  9 11  1  0  0  0  0
M  END
>  <MOL_ID>
37
>  <Name_of_compounds>
(+) Menthol
>  <Activity_Profiles>
0 0 0 0 0
>  <INITIAL_ID>
603

>  <SUM_activity>
0

$$$$

  Marvin  08130811232D          

 11 11  0  0  1  0            999 V2000
    0.4547    1.1625    0.0000 C   0  0  0  0  0  0  0  0  0  0  0  0
    0.4547    0.3375    0.0000 C   0  0  2  0  0  0  0  0  0  0  0  0
    1.1691   -0.0750    0.0000 C   0  0  0  0  0  0  0  0  0  0  0  0
    1.1691   -0.9000    0.0000 C   0  0  0  0  0  0  0  0  0  0  0  0
    0.4547   -1.3125    0.0000 C   0  0  1  0  0  0  0  0  0  0  0  0
    0.4547   -2.1375    0.0000 C   0  0  0  0  0  0  0  0  0  0  0  0
   -0.2598   -2.5500    0.0000 C   0  0  0  0  0  0  0  0  0  0  0  0
    1.1691   -2.5500    0.0000 C   0  0  0  0  0  0  0  0  0  0  0  0
   -0.2598   -0.9000    0.0000 C   0  0  2  0  0  0  0  0  0  0  0  0
   -0.9743   -1.3125    0.0000 O   0  0  0  0  0  0  0  0  0  0  0  0
   -0.2598   -0.0750    0.0000 C   0  0  0  0  0  0  0  0  0  0  0  0
  2  1  1  6  0  0  0
  2  3  1  0  0  0  0
  3  4  1  0  0  0  0
  4  5  1  0  0  0  0
  5  6  1  1  0  0  0
  6  7  1  0  0  0  0
  6  8  1  0  0  0  0
  5  9  1  0  0  0  0
  9 10  1  6  0  0  0
  9 11  1  0  0  0  0
  2 11  1  0  0  0  0
M  END
>  <MOL_ID>
38
>  <Name_of_compounds>
(-) Menthol
>  <Activity_Profiles>
0 0 0 0 0
>  <INITIAL_ID>
604

>  <SUM_activity>
0

$$$$

  Marvin  08130811232D          

 24 25  0  0  0  0            999 V2000
   -2.1434   -3.7125    0.0000 C   0  0  0  0  0  0  0  0  0  0  0  0
   -1.4289   -4.1250    0.0000 N   0  0  0  0  0  0  0  0  0  0  0  0
   -0.7145   -3.7125    0.0000 C   0  0  0  0  0  0  0  0  0  0  0  0
    0.0000   -4.1250    0.0000 C   0  0  0  0  0  0  0  0  0  0  0  0
    0.7145   -3.7125    0.0000 O   0  0  0  0  0  0  0  0  0  0  0  0
    0.7145   -2.8875    0.0000 N   0  0  0  0  0  0  0  0  0  0  0  0
    1.4289   -2.4750    0.0000 C   0  0  0  0  0  0  0  0  0  0  0  0
    2.1434   -2.8875    0.0000 C   0  0  0  0  0  0  0  0  0  0  0  0
    2.8579   -2.4750    0.0000 C   0  0  0  0  0  0  0  0  0  0  0  0
    3.5724   -2.8875    0.0000 C   0  0  0  0  0  0  0  0  0  0  0  0
    3.5724   -3.7125    0.0000 C   0  0  0  0  0  0  0  0  0  0  0  0
    2.8579   -4.1250    0.0000 C   0  0  0  0  0  0  0  0  0  0  0  0
    2.1434   -3.7125    0.0000 C   0  0  0  0  0  0  0  0  0  0  0  0
    1.4289   -4.1250    0.0000 F   0  0  0  0  0  0  0  0  0  0  0  0
    1.4289   -1.6500    0.0000 C   0  0  0  0  0  0  0  0  0  0  0  0
    0.7145   -1.2375    0.0000 C   0  0  0  0  0  0  0  0  0  0  0  0
    0.7145   -0.4125    0.0000 C   0  0  0  0  0  0  0  0  0  0  0  0
    0.0000   -0.0000    0.0000 C   0  0  0  0  0  0  0  0  0  0  0  0
    0.0000    0.8250    0.0000 C   0  0  0  0  0  0  0  0  0  0  0  0
    0.7145    1.2375    0.0000 C   0  0  0  0  0  0  0  0  0  0  0  0
    0.7145    2.0625    0.0000 O   0  0  0  0  0  0  0  0  0  0  0  0
    1.4289    0.8250    0.0000 C   0  0  0  0  0  0  0  0  0  0  0  0
    1.4289    0.0000    0.0000 C   0  0  0  0  0  0  0  0  0  0  0  0
   -1.4289   -4.9500    0.0000 C   0  0  0  0  0  0  0  0  0  0  0  0
  1  2  1  0  0  0  0
  2  3  1  0  0  0  0
  3  4  1  0  0  0  0
  4  5  1  0  0  0  0
  5  6  1  0  0  0  0
  6  7  2  0  0  0  0
  7  8  1  0  0  0  0
  8  9  4  0  0  0  0
  9 10  4  0  0  0  0
 10 11  4  0  0  0  0
 11 12  4  0  0  0  0
 12 13  4  0  0  0  0
  8 13  4  0  0  0  0
 13 14  1  0  0  0  0
  7 15  1  0  0  0  0
 15 16  2  0  0  0  0
 16 17  1  0  0  0  0
 17 18  4  0  0  0  0
 18 19  4  0  0  0  0
 19 20  4  0  0  0  0
 20 21  1  0  0  0  0
 20 22  4  0  0  0  0
 22 23  4  0  0  0  0
 17 23  4  0  0  0  0
  2 24  1  0  0  0  0
M  END
>  <MOL_ID>
25
>  <Name_of_compounds>
SR46349B
>  <Activity_Profiles>
0 0 1 0 0
>  <INITIAL_ID>
126

>  <SUM_activity>
1

$$$$

  Marvin  08130811232D          

 12 12  0  0  0  0            999 V2000
    3.6914    3.9187    0.0000 C   0  0  0  0  0  0  0  0  0  0  0  0
    2.9770    3.5062    0.0000 N   0  0  0  0  0  0  0  0  0  0  0  0
    2.2625    3.9188    0.0000 C   0  0  0  0  0  0  0  0  0  0  0  0
    1.5480    3.5063    0.0000 C   0  0  0  0  0  0  0  0  0  0  0  0
    1.5480    2.6813    0.0000 C   0  0  0  0  0  0  0  0  0  0  0  0
    2.2625    2.2687    0.0000 C   0  0  0  0  0  0  0  0  0  0  0  0
    2.2625    1.4437    0.0000 C   0  0  0  0  0  0  0  0  0  0  0  0
    1.5480    1.0313    0.0000 C   0  0  0  0  0  0  0  0  0  0  0  0
    0.8335    1.4438    0.0000 C   0  0  0  0  0  0  0  0  0  0  0  0
    0.8335    2.2688    0.0000 C   0  0  0  0  0  0  0  0  0  0  0  0
    2.9770    1.0312    0.0000 O   0  0  0  0  0  0  0  0  0  0  0  0
    0.8335    3.9188    0.0000 O   0  0  0  0  0  0  0  0  0  0  0  0
  1  2  1  0  0  0  0
  2  3  1  0  0  0  0
  3  4  1  0  0  0  0
  4  5  1  0  0  0  0
  5  6  4  0  0  0  0
  6  7  4  0  0  0  0
  7  8  4  0  0  0  0
  8  9  4  0  0  0  0
  9 10  4  0  0  0  0
  5 10  4  0  0  0  0
  7 11  1  0  0  0  0
  4 12  1  0  0  0  0
M  END
>  <MOL_ID>
74
>  <Name_of_compounds>
(-)-phenylephrine
>  <Activity_Profiles>
0 0 0 1 0
>  <INITIAL_ID>
1329

>  <SUM_activity>
1

$$$$

  Marvin  08130811232D          

 19 20  0  0  0  0            999 V2000
   -1.6526   -4.0063    0.0000 C   0  0  0  0  0  0  0  0  0  0  0  0
   -0.9382   -4.4188    0.0000 C   0  0  0  0  0  0  0  0  0  0  0  0
   -0.9382   -5.2438    0.0000 C   0  0  0  0  0  0  0  0  0  0  0  0
   -0.2237   -4.0063    0.0000 C   0  0  0  0  0  0  0  0  0  0  0  0
    0.4908   -4.4188    0.0000 C   0  0  0  0  0  0  0  0  0  0  0  0
    0.4908   -5.2438    0.0000 C   0  0  0  0  0  0  0  0  0  0  0  0
    1.3158   -5.2438    0.0000 C   0  0  0  0  0  0  0  0  0  0  0  0
    1.7283   -4.5293    0.0000 C   0  0  0  0  0  0  0  0  0  0  0  0
    2.5533   -4.5293    0.0000 C   0  0  0  0  0  0  0  0  0  0  0  0
    2.9658   -5.2438    0.0000 C   0  0  0  0  0  0  0  0  0  0  0  0
    3.7908   -5.2438    0.0000 Cl  0  0  0  0  0  0  0  0  0  0  0  0
    2.5533   -5.9582    0.0000 C   0  0  0  0  0  0  0  0  0  0  0  0
    1.7283   -5.9582    0.0000 C   0  0  0  0  0  0  0  0  0  0  0  0
   -0.3342   -5.2438    0.0000 C   0  0  0  0  0  0  0  0  0  0  0  0
   -0.3342   -6.0688    0.0000 C   0  0  0  0  0  0  0  0  0  0  0  0
    0.4908   -6.0688    0.0000 C   0  0  0  0  0  0  0  0  0  0  0  0
    1.2053   -4.0063    0.0000 N   0  0  0  0  0  0  0  0  0  0  0  0
    1.2053   -3.1813    0.0000 C   0  0  0  0  0  0  0  0  0  0  0  0
    2.0122   -4.1778    0.0000 C   0  0  0  0  0  0  0  0  0  0  0  0
  1  2  1  0  0  0  0
  2  3  1  0  0  0  0
  2  4  1  0  0  0  0
  4  5  1  0  0  0  0
  5  6  1  0  0  0  0
  6  7  1  0  0  0  0
  7  8  4  0  0  0  0
  8  9  4  0  0  0  0
  9 10  4  0  0  0  0
 10 11  1  0  0  0  0
 10 12  4  0  0  0  0
 12 13  4  0  0  0  0
  7 13  4  0  0  0  0
  6 14  1  0  0  0  0
 14 15  1  0  0  0  0
 15 16  1  0  0  0  0
  6 16  1  0  0  0  0
  5 17  1  0  0  0  0
 17 18  1  0  0  0  0
 17 19  1  0  0  0  0
M  END
>  <MOL_ID>
31
>  <Name_of_compounds>
Sibutramine
>  <Activity_Profiles>
0 0 1 0 0
>  <INITIAL_ID>
540

>  <SUM_activity>
1

$$$$

  Marvin  08130811232D          

 18 20  0  0  0  0            999 V2000
    3.7930    4.6045    0.0000 C   0  0  0  0  0  0  0  0  0  0  0  0
    3.7068    3.7840    0.0000 C   0  0  0  0  0  0  0  0  0  0  0  0
    4.3199    3.2320    0.0000 C   0  0  0  0  0  0  0  0  0  0  0  0
    3.9843    2.4783    0.0000 C   0  0  0  0  0  0  0  0  0  0  0  0
    3.1639    2.5646    0.0000 C   0  0  0  0  0  0  0  0  0  0  0  0
    2.9923    3.3715    0.0000 N   0  0  0  0  0  0  0  0  0  0  0  0
    2.6118    1.9515    0.0000 C   0  0  0  0  0  0  0  0  0  0  0  0
    2.8668    1.1668    0.0000 C   0  0  0  0  0  0  0  0  0  0  0  0
    3.6514    0.9119    0.0000 C   0  0  0  0  0  0  0  0  0  0  0  0
    4.3659    1.3244    0.0000 C   0  0  0  0  0  0  0  0  0  0  0  0
    5.0803    0.9119    0.0000 C   0  0  0  0  0  0  0  0  0  0  0  0
    5.0803    0.0869    0.0000 C   0  0  0  0  0  0  0  0  0  0  0  0
    4.3659   -0.3256    0.0000 C   0  0  0  0  0  0  0  0  0  0  0  0
    3.6514    0.0869    0.0000 C   0  0  0  0  0  0  0  0  0  0  0  0
    2.8668   -0.1680    0.0000 N   0  0  0  0  0  0  0  0  0  0  0  0
    2.3818    0.4994    0.0000 C   0  0  0  0  0  0  0  0  0  0  0  0
    1.5568    0.4994    0.0000 O   0  0  0  0  0  0  0  0  0  0  0  0
    4.3968    1.7638    0.0000 C   0  0  0  0  0  0  0  0  0  0  0  0
  1  2  1  0  0  0  0
  2  3  4  0  0  0  0
  3  4  4  0  0  0  0
  4  5  4  0  0  0  0
  5  6  4  0  0  0  0
  2  6  4  0  0  0  0
  7  5  1  4  0  0  0
  7  8  2  0  0  0  0
  8  9  1  0  0  0  0
  9 10  4  0  0  0  0
 10 11  4  0  0  0  0
 11 12  4  0  0  0  0
 12 13  4  0  0  0  0
 13 14  4  0  0  0  0
  9 14  4  0  0  0  0
 14 15  1  0  0  0  0
 15 16  1  0  0  0  0
  8 16  1  0  0  0  0
 16 17  2  0  0  0  0
  4 18  1  0  0  0  0
M  STY  1   1 DAT
M  SAL   1  1   6
M  SDT   1 MRV_IMPLICIT_H                                        
M  SDD   1     0.0000    0.0000    DR    ALL  0       0  
M  SED   1 IMPL_H1
M  END
>  <MOL_ID>
139
>  <Name_of_compounds>
SU5416
>  <Activity_Profiles>
0 0 0 1 0
>  <INITIAL_ID>
5051

>  <SUM_activity>
1

$$$$

  Marvin  08130811232D          

 23 26  0  0  0  0            999 V2000
    4.8755    4.8579    0.0000 C   0  0  0  0  0  0  0  0  0  0  0  0
    5.2334    4.1146    0.0000 N   0  0  0  0  0  0  0  0  0  0  0  0
    6.0561    4.0530    0.0000 C   0  0  0  0  0  0  0  0  0  0  0  0
    6.4141    3.3097    0.0000 C   0  0  0  0  0  0  0  0  0  0  0  0
    5.9493    2.6280    0.0000 N   0  0  0  0  0  0  0  0  0  0  0  0
    5.1266    2.6897    0.0000 C   0  0  0  0  0  0  0  0  0  0  0  0
    4.7687    3.4330    0.0000 C   0  0  0  0  0  0  0  0  0  0  0  0
    6.3073    1.8847    0.0000 C   0  0  0  0  0  0  0  0  0  0  0  0
    7.1323    1.8847    0.0000 N   0  0  0  0  0  0  0  0  0  0  0  0
    7.6467    1.2397    0.0000 C   0  0  0  0  0  0  0  0  0  0  0  0
    7.4631    0.4354    0.0000 C   0  0  0  0  0  0  0  0  0  0  0  0
    6.7198    0.0775    0.0000 C   0  0  0  0  0  0  0  0  0  0  0  0
    5.9765    0.4354    0.0000 C   0  0  0  0  0  0  0  0  0  0  0  0
    5.3717   -0.1257    0.0000 C   0  0  0  0  0  0  0  0  0  0  0  0
    4.5834    0.1174    0.0000 C   0  0  0  0  0  0  0  0  0  0  0  0
    4.3998    0.9218    0.0000 C   0  0  0  0  0  0  0  0  0  0  0  0
    5.0046    1.4829    0.0000 C   0  0  0  0  0  0  0  0  0  0  0  0
    5.7929    1.2397    0.0000 C   0  0  0  0  0  0  0  0  0  0  0  0
    8.0678   -0.1257    0.0000 C   0  0  0  0  0  0  0  0  0  0  0  0
    8.8562    0.1174    0.0000 C   0  0  0  0  0  0  0  0  0  0  0  0
    9.0398    0.9218    0.0000 C   0  0  0  0  0  0  0  0  0  0  0  0
    8.4350    1.4829    0.0000 C   0  0  0  0  0  0  0  0  0  0  0  0
    9.8281    1.1649    0.0000 F   0  0  0  0  0  0  0  0  0  0  0  0
  1  2  1  0  0  0  0
  2  3  1  0  0  0  0
  3  4  1  0  0  0  0
  4  5  1  0  0  0  0
  5  6  1  0  0  0  0
  6  7  1  0  0  0  0
  2  7  1  0  0  0  0
  5  8  1  0  0  0  0
  8  9  2  0  0  0  0
  9 10  1  0  0  0  0
 10 11  4  0  0  0  0
 11 12  1  0  0  0  0
 12 13  1  0  0  0  0
 13 14  4  0  0  0  0
 14 15  4  0  0  0  0
 15 16  4  0  0  0  0
 16 17  4  0  0  0  0
 17 18  4  0  0  0  0
 13 18  4  0  0  0  0
  8 18  1  0  0  0  0
 11 19  4  0  0  0  0
 19 20  4  0  0  0  0
 20 21  4  0  0  0  0
 21 22  4  0  0  0  0
 10 22  4  0  0  0  0
 21 23  1  0  0  0  0
M  END
>  <MOL_ID>
12
>  <Name_of_compounds>
Fluperlapine
>  <Activity_Profiles>
1 0 0 1 0
>  <INITIAL_ID>
112

>  <SUM_activity>
2

$$$$

  Marvin  08130811232D          

 30 33  0  0  0  0            999 V2000
    2.0509   -0.2101    0.0000 O   0  0  0  0  0  0  0  0  0  0  0  0
    2.7654   -0.6226    0.0000 C   0  0  0  0  0  0  0  0  0  0  0  0
    2.7654   -1.4476    0.0000 C   0  0  0  0  0  0  0  0  0  0  0  0
    3.4329   -1.9325    0.0000 N   0  0  0  0  0  0  0  0  0  0  0  0
    3.1779   -2.7172    0.0000 N   0  0  0  0  0  0  0  0  0  0  0  0
    3.6628   -3.3846    0.0000 C   0  0  0  0  0  0  0  0  0  0  0  0
    4.4833   -3.2984    0.0000 C   0  0  0  0  0  0  0  0  0  0  0  0
    4.9682   -3.9658    0.0000 C   0  0  0  0  0  0  0  0  0  0  0  0
    4.6327   -4.7195    0.0000 C   0  0  0  0  0  0  0  0  0  0  0  0
    5.1176   -5.3869    0.0000 Cl  0  0  0  0  0  0  0  0  0  0  0  0
    3.8122   -4.8057    0.0000 C   0  0  0  0  0  0  0  0  0  0  0  0
    3.3273   -4.1383    0.0000 C   0  0  0  0  0  0  0  0  0  0  0  0
    2.5068   -4.2245    0.0000 Cl  0  0  0  0  0  0  0  0  0  0  0  0
    2.3529   -2.7172    0.0000 C   0  0  0  0  0  0  0  0  0  0  0  0
    1.8680   -3.3846    0.0000 C   0  0  0  0  0  0  0  0  0  0  0  0
    2.2036   -4.1383    0.0000 C   0  0  0  0  0  0  0  0  0  0  0  0
    1.7186   -4.8057    0.0000 C   0  0  0  0  0  0  0  0  0  0  0  0
    0.8982   -4.7195    0.0000 C   0  0  0  0  0  0  0  0  0  0  0  0
    0.4132   -5.3869    0.0000 I   0  0  0  0  0  0  0  0  0  0  0  0
    0.5626   -3.9658    0.0000 C   0  0  0  0  0  0  0  0  0  0  0  0
    1.0475   -3.2984    0.0000 C   0  0  0  0  0  0  0  0  0  0  0  0
    2.0980   -1.9325    0.0000 C   0  0  0  0  0  0  0  0  0  0  0  0
    1.3134   -1.6776    0.0000 C   0  0  0  0  0  0  0  0  0  0  0  0
    3.4799   -0.2101    0.0000 N   0  0  0  0  0  0  0  0  0  0  0  0
    4.1944   -0.6226    0.0000 N   0  0  0  0  0  0  0  0  0  0  0  0
    4.9088   -0.2101    0.0000 C   0  0  0  0  0  0  0  0  0  0  0  0
    5.6233   -0.6226    0.0000 C   0  0  0  0  0  0  0  0  0  0  0  0
    5.6233   -1.4476    0.0000 C   0  0  0  0  0  0  0  0  0  0  0  0
    4.9088   -1.8601    0.0000 C   0  0  0  0  0  0  0  0  0  0  0  0
    4.1944   -1.4476    0.0000 C   0  0  0  0  0  0  0  0  0  0  0  0
  1  2  2  0  0  0  0
  2  3  1  0  0  0  0
  3  4  4  0  0  0  0
  4  5  4  0  0  0  0
  5  6  1  0  0  0  0
  6  7  4  0  0  0  0
  7  8  4  0  0  0  0
  8  9  4  0  0  0  0
  9 10  1  0  0  0  0
  9 11  4  0  0  0  0
 11 12  4  0  0  0  0
  6 12  4  0  0  0  0
 12 13  1  0  0  0  0
  5 14  4  0  0  0  0
 14 15  1  0  0  0  0
 15 16  4  0  0  0  0
 16 17  4  0  0  0  0
 17 18  4  0  0  0  0
 18 19  1  0  0  0  0
 18 20  4  0  0  0  0
 20 21  4  0  0  0  0
 15 21  4  0  0  0  0
 14 22  4  0  0  0  0
  3 22  4  0  0  0  0
 22 23  1  0  0  0  0
  2 24  1  0  0  0  0
 24 25  1  0  0  0  0
 25 26  1  0  0  0  0
 26 27  1  0  0  0  0
 27 28  1  0  0  0  0
 28 29  1  0  0  0  0
 29 30  1  0  0  0  0
 25 30  1  0  0  0  0
M  END
>  <MOL_ID>
130
>  <Name_of_compounds>
AM 251
>  <Activity_Profiles>
1 0 0 0 1
>  <INITIAL_ID>
3190

>  <SUM_activity>
2

$$$$

  Marvin  08130811232D          

 29 30  0  0  0  0            999 V2000
    3.3013    0.3129    0.0000 C   0  0  0  0  0  0  0  0  0  0  0  0
    3.3013   -0.5121    0.0000 C   0  0  0  0  0  0  0  0  0  0  0  0
    4.0158   -0.9246    0.0000 C   0  0  0  0  0  0  0  0  0  0  0  0
    2.5869   -0.9246    0.0000 C   0  0  0  0  0  0  0  0  0  0  0  0
    2.5869   -1.7496    0.0000 C   0  0  0  0  0  0  0  0  0  0  0  0
    1.8724   -2.1621    0.0000 C   0  0  0  0  0  0  0  0  0  0  0  0
    1.1579   -1.7496    0.0000 C   0  0  0  0  0  0  0  0  0  0  0  0
    1.1579   -0.9246    0.0000 C   0  0  0  0  0  0  0  0  0  0  0  0
    1.8724   -0.5121    0.0000 C   0  0  0  0  0  0  0  0  0  0  0  0
    1.8724    0.3129    0.0000 O   0  0  0  0  0  0  0  0  0  0  0  0
    0.4435   -0.5121    0.0000 C   0  0  0  0  0  0  0  0  0  0  0  0
    0.4435    0.3129    0.0000 C   0  0  0  0  0  0  0  0  0  0  0  0
   -0.2710   -0.9246    0.0000 C   0  0  0  0  0  0  0  0  0  0  0  0
    1.8724   -2.9871    0.0000 C   0  0  0  0  0  0  0  0  0  0  0  0
    2.5869   -3.3996    0.0000 C   0  0  0  0  0  0  0  0  0  0  0  0
    2.5869   -4.2246    0.0000 C   0  0  0  0  0  0  0  0  0  0  0  0
    2.5869   -5.0496    0.0000 N   0  0  0  0  0  0  0  0  0  0  0  0
    3.3013   -2.9871    0.0000 C   0  0  0  0  0  0  0  0  0  0  0  0
    3.3013   -2.1621    0.0000 O   0  0  0  0  0  0  0  0  0  0  0  0
    4.0158   -3.3996    0.0000 N   0  0  0  0  0  0  0  0  0  0  0  0
    4.7303   -2.9871    0.0000 C   0  0  0  0  0  0  0  0  0  0  0  0
    5.4448   -3.3996    0.0000 C   0  0  0  0  0  0  0  0  0  0  0  0
    6.1592   -2.9871    0.0000 C   0  0  0  0  0  0  0  0  0  0  0  0
    6.8737   -3.3996    0.0000 C   0  0  0  0  0  0  0  0  0  0  0  0
    7.5882   -2.9871    0.0000 C   0  0  0  0  0  0  0  0  0  0  0  0
    8.3026   -3.3996    0.0000 C   0  0  0  0  0  0  0  0  0  0  0  0
    8.3026   -4.2246    0.0000 C   0  0  0  0  0  0  0  0  0  0  0  0
    7.5882   -4.6371    0.0000 C   0  0  0  0  0  0  0  0  0  0  0  0
    6.8737   -4.2246    0.0000 C   0  0  0  0  0  0  0  0  0  0  0  0
  1  2  1  0  0  0  0
  2  3  1  0  0  0  0
  2  4  1  0  0  0  0
  4  5  4  0  0  0  0
  5  6  4  0  0  0  0
  6  7  4  0  0  0  0
  7  8  4  0  0  0  0
  8  9  4  0  0  0  0
  4  9  4  0  0  0  0
  9 10  1  0  0  0  0
  8 11  1  0  0  0  0
 11 12  1  0  0  0  0
 11 13  1  0  0  0  0
 14  6  1  4  0  0  0
 14 15  2  0  0  0  0
 15 16  1  0  0  0  0
 16 17  3  0  0  0  0
 15 18  1  0  0  0  0
 18 19  2  0  0  0  0
 18 20  1  0  0  0  0
 20 21  1  0  0  0  0
 21 22  1  0  0  0  0
 22 23  1  0  0  0  0
 23 24  1  0  0  0  0
 24 25  4  0  0  0  0
 25 26  4  0  0  0  0
 26 27  4  0  0  0  0
 27 28  4  0  0  0  0
 28 29  4  0  0  0  0
 24 29  4  0  0  0  0
M  END
>  <MOL_ID>
140
>  <Name_of_compounds>
SU1498
>  <Activity_Profiles>
1 0 0 0 1
>  <INITIAL_ID>
5052

>  <SUM_activity>
2

$$$$

  Marvin  08130811232D          

 49 53  0  0  0  0            999 V2000
    6.5778   -6.9406    0.0000 C   0  0  0  0  0  0  0  0  0  0  0  0
    6.1653   -6.2261    0.0000 C   0  0  0  0  0  0  0  0  0  0  0  0
    6.8797   -5.8136    0.0000 C   0  0  0  0  0  0  0  0  0  0  0  0
    5.7528   -5.5117    0.0000 C   0  0  0  0  0  0  0  0  0  0  0  0
    5.4508   -6.6386    0.0000 N   0  0  0  0  0  0  0  0  0  0  0  0
    4.7363   -6.2261    0.0000 C   0  0  0  0  0  0  0  0  0  0  0  0
    4.7363   -5.4011    0.0000 O   0  0  0  0  0  0  0  0  0  0  0  0
    4.0218   -6.6386    0.0000 C   0  0  0  0  0  0  0  0  0  0  0  0
    3.3074   -6.2261    0.0000 C   0  0  0  0  0  0  0  0  0  0  0  0
    2.5929   -6.6386    0.0000 C   0  0  0  0  0  0  0  0  0  0  0  0
    1.8784   -6.2261    0.0000 C   0  0  0  0  0  0  0  0  0  0  0  0
    1.1640   -6.6386    0.0000 C   0  0  0  0  0  0  0  0  0  0  0  0
    1.1640   -7.4636    0.0000 C   0  0  0  0  0  0  0  0  0  0  0  0
    1.8784   -7.8761    0.0000 C   0  0  0  0  0  0  0  0  0  0  0  0
    2.5929   -7.4636    0.0000 C   0  0  0  0  0  0  0  0  0  0  0  0
    3.3074   -7.8761    0.0000 C   0  0  0  0  0  0  0  0  0  0  0  0
    4.0218   -7.4636    0.0000 N   0  0  0  0  0  0  0  0  0  0  0  0
    4.7363   -7.8761    0.0000 C   0  0  0  0  0  0  0  0  0  0  0  0
    5.4508   -7.4636    0.0000 C   0  0  0  0  0  0  0  0  0  0  0  0
    6.1653   -7.8761    0.0000 C   0  0  0  0  0  0  0  0  0  0  0  0
    6.1653   -8.7011    0.0000 C   0  0  0  0  0  0  0  0  0  0  0  0
    5.4508   -9.1136    0.0000 C   0  0  0  0  0  0  0  0  0  0  0  0
    5.4508   -9.9386    0.0000 C   0  0  0  0  0  0  0  0  0  0  0  0
    4.7363  -10.3511    0.0000 C   0  0  0  0  0  0  0  0  0  0  0  0
    4.0218   -9.9386    0.0000 C   0  0  0  0  0  0  0  0  0  0  0  0
    4.0218   -9.1136    0.0000 C   0  0  0  0  0  0  0  0  0  0  0  0
    4.7363   -8.7011    0.0000 C   0  0  0  0  0  0  0  0  0  0  0  0
    6.8797   -7.4636    0.0000 N   0  0  0  0  0  0  0  0  0  0  0  0
    7.5942   -7.8761    0.0000 C   0  0  0  0  0  0  0  0  0  0  0  0
    7.5942   -8.7011    0.0000 O   0  0  0  0  0  0  0  0  0  0  0  0
    8.3087   -7.4636    0.0000 C   0  0  0  0  0  0  0  0  0  0  0  0
    8.3087   -6.6386    0.0000 C   0  0  0  0  0  0  0  0  0  0  0  0
    7.5942   -6.2261    0.0000 C   0  0  0  0  0  0  0  0  0  0  0  0
    6.8797   -6.6386    0.0000 O   0  0  0  0  0  0  0  0  0  0  0  0
    7.5942   -5.4011    0.0000 N   0  0  0  0  0  0  0  0  0  0  0  0
    9.0231   -7.8761    0.0000 N   0  0  0  0  0  0  0  0  0  0  0  0
    9.7376   -7.4636    0.0000 C   0  0  0  0  0  0  0  0  0  0  0  0
    9.7376   -6.6386    0.0000 O   0  0  0  0  0  0  0  0  0  0  0  0
   10.4521   -7.8761    0.0000 C   0  0  0  0  0  0  0  0  0  0  0  0
   11.1666   -7.4636    0.0000 N   0  0  0  0  0  0  0  0  0  0  0  0
   11.8810   -7.8761    0.0000 C   0  0  0  0  0  0  0  0  0  0  0  0
   12.5955   -7.4636    0.0000 C   0  0  0  0  0  0  0  0  0  0  0  0
   13.3100   -7.8761    0.0000 C   0  0  0  0  0  0  0  0  0  0  0  0
   13.3100   -8.7011    0.0000 C   0  0  0  0  0  0  0  0  0  0  0  0
   12.5955   -9.1136    0.0000 C   0  0  0  0  0  0  0  0  0  0  0  0
   11.8810   -8.7011    0.0000 C   0  0  0  0  0  0  0  0  0  0  0  0
   11.1666   -9.1136    0.0000 C   0  0  0  0  0  0  0  0  0  0  0  0
   10.4521   -8.7011    0.0000 C   0  0  0  0  0  0  0  0  0  0  0  0
    5.9357   -6.7962    0.0000 O   0  0  0  0  0  0  0  0  0  0  0  0
  1  2  1  0  0  0  0
  2  3  1  0  0  0  0
  2  4  1  0  0  0  0
  2  5  1  0  0  0  0
  5  6  1  0  0  0  0
  6  7  2  0  0  0  0
  6  8  1  0  0  0  0
  8  9  1  0  0  0  0
  9 10  1  0  0  0  0
 10 11  1  0  0  0  0
 11 12  1  0  0  0  0
 12 13  1  0  0  0  0
 13 14  1  0  0  0  0
 14 15  1  0  0  0  0
 10 15  1  0  0  0  0
 15 16  1  0  0  0  0
 16 17  1  0  0  0  0
  8 17  1  0  0  0  0
 17 18  1  0  0  0  0
 18 19  1  0  0  0  0
 19 20  1  0  0  0  0
 20 21  1  0  0  0  0
 21 22  1  0  0  0  0
 22 23  4  0  0  0  0
 23 24  4  0  0  0  0
 24 25  4  0  0  0  0
 25 26  4  0  0  0  0
 26 27  4  0  0  0  0
 22 27  4  0  0  0  0
 20 28  1  0  0  0  0
 28 29  1  0  0  0  0
 29 30  2  0  0  0  0
 29 31  1  0  0  0  0
 31 32  1  0  0  0  0
 32 33  1  0  0  0  0
 33 34  2  0  0  0  0
 33 35  1  0  0  0  0
 31 36  1  0  0  0  0
 36 37  1  0  0  0  0
 37 38  2  0  0  0  0
 37 39  1  0  0  0  0
 39 40  4  0  0  0  0
 40 41  4  0  0  0  0
 41 42  4  0  0  0  0
 42 43  4  0  0  0  0
 43 44  4  0  0  0  0
 44 45  4  0  0  0  0
 45 46  4  0  0  0  0
 41 46  4  0  0  0  0
 46 47  4  0  0  0  0
 47 48  4  0  0  0  0
 39 48  4  0  0  0  0
 19 49  1  0  0  0  0
M  END
>  <MOL_ID>
116
>  <Name_of_compounds>
Saquinavir mesylate
>  <Activity_Profiles>
0 1 0 0 1
>  <INITIAL_ID>
2103

>  <SUM_activity>
2

$$$$

  Marvin  08130811232D          

 20 22  0  0  0  0            999 V2000
    4.7900    3.6545    0.0000 C   0  0  0  0  0  0  0  0  0  0  0  0
    3.9650    3.6545    0.0000 N   0  0  0  0  0  0  0  0  0  0  0  0
    3.6071    2.9112    0.0000 C   0  0  0  0  0  0  0  0  0  0  0  0
    2.8028    2.7276    0.0000 C   0  0  0  0  0  0  0  0  0  0  0  0
    2.1577    3.2420    0.0000 C   0  0  0  0  0  0  0  0  0  0  0  0
    1.4433    2.8295    0.0000 C   0  0  0  0  0  0  0  0  0  0  0  0
    0.7288    3.2420    0.0000 C   0  0  0  0  0  0  0  0  0  0  0  0
    0.7288    4.0670    0.0000 C   0  0  0  0  0  0  0  0  0  0  0  0
    1.4433    4.4795    0.0000 C   0  0  0  0  0  0  0  0  0  0  0  0
    2.1577    4.0670    0.0000 C   0  0  0  0  0  0  0  0  0  0  0  0
    2.8028    4.5814    0.0000 C   0  0  0  0  0  0  0  0  0  0  0  0
    3.6071    4.3978    0.0000 C   0  0  0  0  0  0  0  0  0  0  0  0
    2.6192    5.3857    0.0000 C   0  0  0  0  0  0  0  0  0  0  0  0
    1.8308    5.6289    0.0000 C   0  0  0  0  0  0  0  0  0  0  0  0
    1.6472    6.4332    0.0000 C   0  0  0  0  0  0  0  0  0  0  0  0
    2.2520    6.9943    0.0000 C   0  0  0  0  0  0  0  0  0  0  0  0
    3.0404    6.7512    0.0000 C   0  0  0  0  0  0  0  0  0  0  0  0
    3.2239    5.9469    0.0000 C   0  0  0  0  0  0  0  0  0  0  0  0
    0.0143    4.4795    0.0000 O   0  0  0  0  0  0  0  0  0  0  0  0
    0.0143    2.8295    0.0000 O   0  0  0  0  0  0  0  0  0  0  0  0
  1  2  1  0  0  0  0
  2  3  1  0  0  0  0
  3  4  1  0  0  0  0
  4  5  1  0  0  0  0
  5  6  4  0  0  0  0
  6  7  4  0  0  0  0
  7  8  4  0  0  0  0
  8  9  4  0  0  0  0
  9 10  4  0  0  0  0
  5 10  4  0  0  0  0
 10 11  1  0  0  0  0
 11 12  1  0  0  0  0
  2 12  1  0  0  0  0
 11 13  1  0  0  0  0
 13 14  4  0  0  0  0
 14 15  4  0  0  0  0
 15 16  4  0  0  0  0
 16 17  4  0  0  0  0
 17 18  4  0  0  0  0
 13 18  4  0  0  0  0
  8 19  1  0  0  0  0
  7 20  1  0  0  0  0
M  END
>  <MOL_ID>
73
>  <Name_of_compounds>
SKF 75670
>  <Activity_Profiles>
1 0 0 0 1
>  <INITIAL_ID>
1328

>  <SUM_activity>
2

$$$$

  Marvin  08130811232D          

 30 33  0  0  0  0            999 V2000
    0.6665   -0.5916    0.0000 C   0  0  0  0  0  0  0  0  0  0  0  0
    0.6665   -1.4166    0.0000 C   0  0  0  0  0  0  0  0  0  0  0  0
    1.3340   -1.9015    0.0000 C   0  0  0  0  0  0  0  0  0  0  0  0
    1.0790   -2.6862    0.0000 N   0  0  0  0  0  0  0  0  0  0  0  0
    0.2540   -2.6862    0.0000 N   0  0  0  0  0  0  0  0  0  0  0  0
   -0.0009   -1.9015    0.0000 C   0  0  0  0  0  0  0  0  0  0  0  0
   -0.7855   -1.6466    0.0000 C   0  0  0  0  0  0  0  0  0  0  0  0
   -0.9571   -0.8396    0.0000 O   0  0  0  0  0  0  0  0  0  0  0  0
   -1.3986   -2.1986    0.0000 N   0  0  0  0  0  0  0  0  0  0  0  0
   -2.1832   -1.9437    0.0000 N   0  0  0  0  0  0  0  0  0  0  0  0
   -2.7963   -2.4957    0.0000 C   0  0  0  0  0  0  0  0  0  0  0  0
   -3.5810   -2.2408    0.0000 C   0  0  0  0  0  0  0  0  0  0  0  0
   -3.7525   -1.4338    0.0000 C   0  0  0  0  0  0  0  0  0  0  0  0
   -3.1394   -0.8818    0.0000 C   0  0  0  0  0  0  0  0  0  0  0  0
   -2.3548   -1.1367    0.0000 C   0  0  0  0  0  0  0  0  0  0  0  0
    1.5639   -3.3536    0.0000 C   0  0  0  0  0  0  0  0  0  0  0  0
    2.3844   -3.2674    0.0000 C   0  0  0  0  0  0  0  0  0  0  0  0
    2.8694   -3.9348    0.0000 C   0  0  0  0  0  0  0  0  0  0  0  0
    2.5338   -4.6885    0.0000 C   0  0  0  0  0  0  0  0  0  0  0  0
    1.7133   -4.7747    0.0000 C   0  0  0  0  0  0  0  0  0  0  0  0
    1.2284   -4.1073    0.0000 C   0  0  0  0  0  0  0  0  0  0  0  0
    3.0187   -5.3559    0.0000 Cl  0  0  0  0  0  0  0  0  0  0  0  0
    2.7200   -2.5137    0.0000 Cl  0  0  0  0  0  0  0  0  0  0  0  0
    2.1186   -1.6466    0.0000 C   0  0  0  0  0  0  0  0  0  0  0  0
    2.2901   -0.8396    0.0000 C   0  0  0  0  0  0  0  0  0  0  0  0
    3.0747   -0.5847    0.0000 C   0  0  0  0  0  0  0  0  0  0  0  0
    3.6878   -1.1367    0.0000 C   0  0  0  0  0  0  0  0  0  0  0  0
    3.5163   -1.9437    0.0000 C   0  0  0  0  0  0  0  0  0  0  0  0
    2.7317   -2.1986    0.0000 C   0  0  0  0  0  0  0  0  0  0  0  0
    4.4725   -0.8818    0.0000 Cl  0  0  0  0  0  0  0  0  0  0  0  0
  1  2  1  0  0  0  0
  2  3  4  0  0  0  0
  3  4  4  0  0  0  0
  4  5  4  0  0  0  0
  5  6  4  0  0  0  0
  2  6  4  0  0  0  0
  6  7  1  0  0  0  0
  7  8  2  0  0  0  0
  7  9  1  0  0  0  0
  9 10  1  0  0  0  0
 10 11  1  0  0  0  0
 11 12  1  0  0  0  0
 12 13  1  0  0  0  0
 13 14  1  0  0  0  0
 14 15  1  0  0  0  0
 10 15  1  0  0  0  0
  4 16  1  0  0  0  0
 16 17  4  0  0  0  0
 17 18  4  0  0  0  0
 18 19  4  0  0  0  0
 19 20  4  0  0  0  0
 20 21  4  0  0  0  0
 16 21  4  0  0  0  0
 19 22  1  0  0  0  0
 17 23  1  0  0  0  0
  3 24  1  0  0  0  0
 24 25  4  0  0  0  0
 25 26  4  0  0  0  0
 26 27  4  0  0  0  0
 27 28  4  0  0  0  0
 28 29  4  0  0  0  0
 24 29  4  0  0  0  0
 27 30  1  0  0  0  0
M  END
>  <MOL_ID>
134
>  <Name_of_compounds>
Rimonabant
>  <Activity_Profiles>
1 0 0 0 1
>  <INITIAL_ID>
3251

>  <SUM_activity>
2

$$$$

  Marvin  08130811232D          

 16 17  0  0  1  0            999 V2000
    1.0717   -0.2578    0.0000 C   0  0  0  0  0  0  0  0  0  0  0  0
    1.0717   -1.0828    0.0000 C   0  0  0  0  0  0  0  0  0  0  0  0
    1.7862   -1.4953    0.0000 C   0  0  0  0  0  0  0  0  0  0  0  0
    1.7862   -2.3203    0.0000 N   0  0  0  0  0  0  0  0  0  0  0  0
    2.5007   -2.7328    0.0000 C   0  0  0  0  0  0  0  0  0  0  0  0
    2.5007   -3.5578    0.0000 C   0  0  1  0  0  0  0  0  0  0  0  0
    3.2151   -3.9703    0.0000 C   0  0  0  0  0  0  0  0  0  0  0  0
    3.9296   -3.5578    0.0000 C   0  0  0  0  0  0  0  0  0  0  0  0
    4.6441   -3.9703    0.0000 C   0  0  0  0  0  0  0  0  0  0  0  0
    4.6441   -4.7953    0.0000 C   0  0  0  0  0  0  0  0  0  0  0  0
    3.9296   -5.2078    0.0000 C   0  0  0  0  0  0  0  0  0  0  0  0
    3.9296   -6.0328    0.0000 O   0  0  0  0  0  0  0  0  0  0  0  0
    3.2151   -4.7953    0.0000 C   0  0  0  0  0  0  0  0  0  0  0  0
    1.7862   -3.9703    0.0000 C   0  0  0  0  0  0  0  0  0  0  0  0
    1.0717   -3.5578    0.0000 C   0  0  0  0  0  0  0  0  0  0  0  0
    1.0717   -2.7328    0.0000 C   0  0  0  0  0  0  0  0  0  0  0  0
  1  2  1  0  0  0  0
  2  3  1  0  0  0  0
  3  4  1  0  0  0  0
  4  5  1  0  0  0  0
  5  6  1  0  0  0  0
  6  7  1  0  0  0  0
  7  8  4  0  0  0  0
  8  9  4  0  0  0  0
  9 10  4  0  0  0  0
 10 11  4  0  0  0  0
 11 12  1  0  0  0  0
 11 13  4  0  0  0  0
  7 13  4  0  0  0  0
  6 14  1  1  0  0  0
 14 15  1  0  0  0  0
 15 16  1  0  0  0  0
  4 16  1  0  0  0  0
M  END
>  <MOL_ID>
50
>  <Name_of_compounds>
(R)-(+)-3-(3-Hydroxyphenyl)-N-propylpiperidine
>  <Activity_Profiles>
0 1 1 1 0
>  <INITIAL_ID>
685

>  <SUM_activity>
3

$$$$

  Marvin  08130811232D          

 29 31  0  0  0  0            999 V2000
   -4.6810   -4.0681    0.0000 C   0  0  0  0  0  0  0  0  0  0  0  0
   -4.6810   -4.8931    0.0000 C   0  0  0  0  0  0  0  0  0  0  0  0
   -5.3955   -5.3056    0.0000 C   0  0  0  0  0  0  0  0  0  0  0  0
   -5.3955   -6.1306    0.0000 C   0  0  0  0  0  0  0  0  0  0  0  0
   -6.1100   -6.5431    0.0000 C   0  0  0  0  0  0  0  0  0  0  0  0
   -6.1100   -7.3681    0.0000 C   0  0  0  0  0  0  0  0  0  0  0  0
   -6.8244   -7.7806    0.0000 C   0  0  0  0  0  0  0  0  0  0  0  0
   -7.5389   -7.3681    0.0000 C   0  0  0  0  0  0  0  0  0  0  0  0
   -7.5389   -6.5431    0.0000 C   0  0  0  0  0  0  0  0  0  0  0  0
   -6.8244   -6.1306    0.0000 C   0  0  0  0  0  0  0  0  0  0  0  0
   -4.6810   -6.5431    0.0000 C   0  0  0  0  0  0  0  0  0  0  0  0
   -3.9665   -6.1306    0.0000 C   0  0  0  0  0  0  0  0  0  0  0  0
   -3.2521   -6.5431    0.0000 C   0  0  0  0  0  0  0  0  0  0  0  0
   -3.2521   -7.3681    0.0000 C   0  0  0  0  0  0  0  0  0  0  0  0
   -3.9665   -7.7806    0.0000 C   0  0  0  0  0  0  0  0  0  0  0  0
   -4.6810   -7.3681    0.0000 C   0  0  0  0  0  0  0  0  0  0  0  0
   -2.5376   -7.7806    0.0000 O   0  0  0  0  0  0  0  0  0  0  0  0
   -1.8231   -7.3681    0.0000 C   0  0  0  0  0  0  0  0  0  0  0  0
   -1.1087   -7.7806    0.0000 C   0  0  0  0  0  0  0  0  0  0  0  0
   -0.3942   -7.3681    0.0000 N   0  0  0  0  0  0  0  0  0  0  0  0
   -0.3942   -6.5431    0.0000 C   0  0  0  0  0  0  0  0  0  0  0  0
    0.3203   -7.7806    0.0000 C   0  0  0  0  0  0  0  0  0  0  0  0
   -6.1100   -4.8931    0.0000 C   0  0  0  0  0  0  0  0  0  0  0  0
   -6.8244   -5.3056    0.0000 C   0  0  0  0  0  0  0  0  0  0  0  0
   -7.5389   -4.8931    0.0000 C   0  0  0  0  0  0  0  0  0  0  0  0
   -7.5389   -4.0681    0.0000 C   0  0  0  0  0  0  0  0  0  0  0  0
   -6.8244   -3.6556    0.0000 C   0  0  0  0  0  0  0  0  0  0  0  0
   -6.1100   -4.0681    0.0000 C   0  0  0  0  0  0  0  0  0  0  0  0
   -8.2534   -3.6556    0.0000 O   0  0  0  0  0  0  0  0  0  0  0  0
  1  2  1  0  0  0  0
  3  2  1  4  0  0  0
  3  4  2  0  0  0  0
  4  5  1  0  0  0  0
  5  6  4  0  0  0  0
  6  7  4  0  0  0  0
  7  8  4  0  0  0  0
  8  9  4  0  0  0  0
  9 10  4  0  0  0  0
  5 10  4  0  0  0  0
  4 11  1  0  0  0  0
 11 12  4  0  0  0  0
 12 13  4  0  0  0  0
 13 14  4  0  0  0  0
 14 15  4  0  0  0  0
 15 16  4  0  0  0  0
 11 16  4  0  0  0  0
 14 17  1  0  0  0  0
 17 18  1  0  0  0  0
 18 19  1  0  0  0  0
 19 20  1  0  0  0  0
 20 21  1  0  0  0  0
 20 22  1  0  0  0  0
  3 23  1  0  0  0  0
 23 24  4  0  0  0  0
 24 25  4  0  0  0  0
 25 26  4  0  0  0  0
 26 27  4  0  0  0  0
 27 28  4  0  0  0  0
 23 28  4  0  0  0  0
 26 29  1  0  0  0  0
M  END
>  <MOL_ID>
48
>  <Name_of_compounds>
4-Hydroxy-tamoxifen
>  <Activity_Profiles>
1 0 1 0 1
>  <INITIAL_ID>
679

>  <SUM_activity>
3

$$$$

  Marvin  08130811232D          

 22 23  0  0  0  0            999 V2000
    5.0987   -8.5688    0.0000 C   0  0  0  0  0  0  0  0  0  0  0  0
    5.8132   -8.1563    0.0000 N   0  0  0  0  0  0  0  0  0  0  0  0
    6.5277   -8.5687    0.0000 C   0  0  0  0  0  0  0  0  0  0  0  0
    7.2421   -8.1563    0.0000 C   0  0  0  0  0  0  0  0  0  0  0  0
    7.9566   -8.5688    0.0000 C   0  0  0  0  0  0  0  0  0  0  0  0
    7.9566   -9.3938    0.0000 C   0  0  0  0  0  0  0  0  0  0  0  0
    8.6711   -9.8063    0.0000 C   0  0  0  0  0  0  0  0  0  0  0  0
    8.6711  -10.6313    0.0000 C   0  0  0  0  0  0  0  0  0  0  0  0
    7.9566  -11.0438    0.0000 C   0  0  0  0  0  0  0  0  0  0  0  0
    7.2421  -10.6313    0.0000 C   0  0  0  0  0  0  0  0  0  0  0  0
    7.2421   -9.8063    0.0000 C   0  0  0  0  0  0  0  0  0  0  0  0
    8.6711   -8.1563    0.0000 O   0  0  0  0  0  0  0  0  0  0  0  0
    9.3856   -8.5688    0.0000 C   0  0  0  0  0  0  0  0  0  0  0  0
   10.1000   -8.1563    0.0000 C   0  0  0  0  0  0  0  0  0  0  0  0
   10.8145   -8.5687    0.0000 C   0  0  0  0  0  0  0  0  0  0  0  0
   10.8145   -9.3937    0.0000 C   0  0  0  0  0  0  0  0  0  0  0  0
   10.1000   -9.8063    0.0000 C   0  0  0  0  0  0  0  0  0  0  0  0
    9.3856   -9.3938    0.0000 C   0  0  0  0  0  0  0  0  0  0  0  0
   11.5290   -9.8063    0.0000 C   0  0  0  0  0  0  0  0  0  0  0  0
   11.1165  -10.5207    0.0000 F   0  0  0  0  0  0  0  0  0  0  0  0
   12.2434  -10.2188    0.0000 F   0  0  0  0  0  0  0  0  0  0  0  0
   11.9415   -9.0918    0.0000 F   0  0  0  0  0  0  0  0  0  0  0  0
  1  2  1  0  0  0  0
  2  3  1  0  0  0  0
  3  4  1  0  0  0  0
  4  5  1  0  0  0  0
  5  6  1  0  0  0  0
  6  7  4  0  0  0  0
  7  8  4  0  0  0  0
  8  9  4  0  0  0  0
  9 10  4  0  0  0  0
 10 11  4  0  0  0  0
  6 11  4  0  0  0  0
  5 12  1  0  0  0  0
 12 13  1  0  0  0  0
 13 14  4  0  0  0  0
 14 15  4  0  0  0  0
 15 16  4  0  0  0  0
 16 17  4  0  0  0  0
 17 18  4  0  0  0  0
 13 18  4  0  0  0  0
 16 19  1  0  0  0  0
 19 20  1  0  0  0  0
 19 21  1  0  0  0  0
 19 22  1  0  0  0  0
M  END
>  <MOL_ID>
64
>  <Name_of_compounds>
Fluoxetine
>  <Activity_Profiles>
1 0 1 0 1
>  <INITIAL_ID>
1316

>  <SUM_activity>
3

$$$$

  Marvin  08130811232D          

 14 15  0  0  0  0            999 V2000
    6.1760    6.2764    0.0000 C   0  0  0  0  0  0  0  0  0  0  0  0
    6.1760    5.4514    0.0000 C   0  0  0  0  0  0  0  0  0  0  0  0
    5.4615    5.0389    0.0000 C   0  0  0  0  0  0  0  0  0  0  0  0
    5.4615    4.2139    0.0000 N   0  0  0  0  0  0  0  0  0  0  0  0
    4.7471    3.8014    0.0000 C   0  0  0  0  0  0  0  0  0  0  0  0
    4.7471    2.9764    0.0000 C   0  0  0  0  0  0  0  0  0  0  0  0
    4.0326    2.5639    0.0000 C   0  0  0  0  0  0  0  0  0  0  0  0
    3.3181    2.9764    0.0000 C   0  0  0  0  0  0  0  0  0  0  0  0
    3.3181    3.8014    0.0000 C   0  0  0  0  0  0  0  0  0  0  0  0
    4.0326    4.2139    0.0000 C   0  0  0  0  0  0  0  0  0  0  0  0
    2.5335    4.0563    0.0000 S   0  0  0  0  0  0  0  0  0  0  0  0
    2.0486    3.3889    0.0000 C   0  0  0  0  0  0  0  0  0  0  0  0
    2.5335    2.7215    0.0000 N   0  0  0  0  0  0  0  0  0  0  0  0
    1.2236    3.3889    0.0000 N   0  0  0  0  0  0  0  0  0  0  0  0
  1  2  1  0  0  0  0
  2  3  1  0  0  0  0
  3  4  1  0  0  0  0
  4  5  1  0  0  0  0
  5  6  1  0  0  0  0
  6  7  1  0  0  0  0
  7  8  1  0  0  0  0
  8  9  4  0  0  0  0
  9 10  1  0  0  0  0
  5 10  1  0  0  0  0
  9 11  4  0  0  0  0
 11 12  4  0  0  0  0
 12 13  4  0  0  0  0
  8 13  4  0  0  0  0
 12 14  1  0  0  0  0
M  END
>  <MOL_ID>
120
>  <Name_of_compounds>
Pramipexole
>  <Activity_Profiles>
0 1 1 1 0
>  <INITIAL_ID>
2337

>  <SUM_activity>
3

$$$$

  Marvin  08130811232D          

 23 24  0  0  0  0            999 V2000
    1.5601   -1.6142    0.0000 C   0  0  0  0  0  0  0  0  0  0  0  0
    2.2746   -2.0267    0.0000 C   0  0  0  0  0  0  0  0  0  0  0  0
    2.2746   -2.8517    0.0000 N   0  0  0  0  0  0  0  0  0  0  0  0
    2.9421   -3.3366    0.0000 C   0  0  0  0  0  0  0  0  0  0  0  0
    2.6871   -4.1212    0.0000 C   0  0  0  0  0  0  0  0  0  0  0  0
    1.8621   -4.1212    0.0000 C   0  0  0  0  0  0  0  0  0  0  0  0
    1.6072   -3.3366    0.0000 C   0  0  0  0  0  0  0  0  0  0  0  0
    0.8226   -3.0817    0.0000 C   0  0  0  0  0  0  0  0  0  0  0  0
    0.6510   -2.2747    0.0000 N   0  0  0  0  0  0  0  0  0  0  0  0
   -0.1336   -2.0198    0.0000 C   0  0  0  0  0  0  0  0  0  0  0  0
   -0.7467   -2.5718    0.0000 O   0  0  0  0  0  0  0  0  0  0  0  0
   -0.3051   -1.2128    0.0000 C   0  0  0  0  0  0  0  0  0  0  0  0
   -1.0897   -0.9578    0.0000 C   0  0  0  0  0  0  0  0  0  0  0  0
   -1.2613   -0.1509    0.0000 C   0  0  0  0  0  0  0  0  0  0  0  0
   -0.6482    0.4012    0.0000 C   0  0  0  0  0  0  0  0  0  0  0  0
    0.1365    0.1462    0.0000 C   0  0  0  0  0  0  0  0  0  0  0  0
    0.3080   -0.6608    0.0000 C   0  0  0  0  0  0  0  0  0  0  0  0
    0.7495    0.6983    0.0000 S   0  0  0  0  0  0  0  0  0  0  0  0
    1.3016    0.0852    0.0000 O   0  0  0  0  0  0  0  0  0  0  0  0
    1.3626    1.2503    0.0000 O   0  0  0  0  0  0  0  0  0  0  0  0
    0.1975    1.3113    0.0000 N   0  0  0  0  0  0  0  0  0  0  0  0
   -1.7028   -1.5099    0.0000 O   0  0  0  0  0  0  0  0  0  0  0  0
   -2.4875   -1.2549    0.0000 C   0  0  0  0  0  0  0  0  0  0  0  0
  1  2  1  0  0  0  0
  2  3  1  0  0  0  0
  3  4  1  0  0  0  0
  4  5  1  0  0  0  0
  5  6  1  0  0  0  0
  6  7  1  0  0  0  0
  3  7  1  0  0  0  0
  7  8  1  0  0  0  0
  8  9  1  0  0  0  0
  9 10  1  0  0  0  0
 10 11  2  0  0  0  0
 10 12  1  0  0  0  0
 12 13  4  0  0  0  0
 13 14  4  0  0  0  0
 14 15  4  0  0  0  0
 15 16  4  0  0  0  0
 16 17  4  0  0  0  0
 12 17  4  0  0  0  0
 16 18  1  0  0  0  0
 18 19  2  0  0  0  0
 18 20  2  0  0  0  0
 18 21  1  0  0  0  0
 13 22  1  0  0  0  0
 22 23  1  0  0  0  0
M  END
>  <MOL_ID>
7
>  <Name_of_compounds>
Sulpride
>  <Activity_Profiles>
0 1 1 1 0
>  <INITIAL_ID>
107

>  <SUM_activity>
3

$$$$

  Marvin  08130811232D          

 22 25  0  0  0  0            999 V2000
    4.6184    4.9931    0.0000 C   0  0  0  0  0  0  0  0  0  0  0  0
    4.9764    4.2498    0.0000 N   0  0  0  0  0  0  0  0  0  0  0  0
    5.7991    4.1882    0.0000 C   0  0  0  0  0  0  0  0  0  0  0  0
    6.1570    3.4449    0.0000 C   0  0  0  0  0  0  0  0  0  0  0  0
    5.6923    2.7632    0.0000 N   0  0  0  0  0  0  0  0  0  0  0  0
    4.8696    2.8249    0.0000 C   0  0  0  0  0  0  0  0  0  0  0  0
    4.5116    3.5682    0.0000 C   0  0  0  0  0  0  0  0  0  0  0  0
    6.0502    2.0199    0.0000 C   0  0  0  0  0  0  0  0  0  0  0  0
    6.8752    2.0199    0.0000 N   0  0  0  0  0  0  0  0  0  0  0  0
    7.3896    1.3749    0.0000 C   0  0  0  0  0  0  0  0  0  0  0  0
    8.1780    1.6181    0.0000 C   0  0  0  0  0  0  0  0  0  0  0  0
    8.7827    1.0570    0.0000 C   0  0  0  0  0  0  0  0  0  0  0  0
    8.5992    0.2526    0.0000 C   0  0  0  0  0  0  0  0  0  0  0  0
    7.8108    0.0095    0.0000 C   0  0  0  0  0  0  0  0  0  0  0  0
    7.2060    0.5706    0.0000 C   0  0  0  0  0  0  0  0  0  0  0  0
    6.4627    0.2127    0.0000 C   0  0  0  0  0  0  0  0  0  0  0  0
    5.7194    0.5706    0.0000 C   0  0  0  0  0  0  0  0  0  0  0  0
    5.1147    0.0095    0.0000 C   0  0  0  0  0  0  0  0  0  0  0  0
    4.3263    0.2526    0.0000 C   0  0  0  0  0  0  0  0  0  0  0  0
    4.1427    1.0570    0.0000 C   0  0  0  0  0  0  0  0  0  0  0  0
    4.7475    1.6181    0.0000 C   0  0  0  0  0  0  0  0  0  0  0  0
    5.5359    1.3749    0.0000 C   0  0  0  0  0  0  0  0  0  0  0  0
  1  2  1  0  0  0  0
  2  3  1  0  0  0  0
  3  4  1  0  0  0  0
  4  5  1  0  0  0  0
  5  6  1  0  0  0  0
  6  7  1  0  0  0  0
  2  7  1  0  0  0  0
  5  8  1  0  0  0  0
  8  9  2  0  0  0  0
  9 10  1  0  0  0  0
 10 11  4  0  0  0  0
 11 12  4  0  0  0  0
 12 13  4  0  0  0  0
 13 14  4  0  0  0  0
 14 15  4  0  0  0  0
 10 15  4  0  0  0  0
 15 16  1  0  0  0  0
 16 17  1  0  0  0  0
 17 18  4  0  0  0  0
 18 19  4  0  0  0  0
 19 20  4  0  0  0  0
 20 21  4  0  0  0  0
 21 22  4  0  0  0  0
 17 22  4  0  0  0  0
  8 22  1  0  0  0  0
M  END
>  <MOL_ID>
106
>  <Name_of_compounds>
Perlapine
>  <Activity_Profiles>
1 1 1 1 0
>  <INITIAL_ID>
1897

>  <SUM_activity>
4

$$$$

  Marvin  08130811232D          

 22 23  0  0  0  0            999 V2000
   -3.1835   -5.1489    0.0000 N   0  0  0  0  0  0  0  0  0  0  0  0
   -3.1835   -4.3239    0.0000 C   0  0  0  0  0  0  0  0  0  0  0  0
   -3.8980   -3.9114    0.0000 N   0  0  0  0  0  0  0  0  0  0  0  0
   -4.6124   -4.3239    0.0000 N   0  0  0  0  0  0  0  0  0  0  0  0
   -4.6124   -5.1489    0.0000 C   0  0  0  0  0  0  0  0  0  0  0  0
   -5.3269   -5.5614    0.0000 C   0  0  0  0  0  0  0  0  0  0  0  0
   -6.0806   -5.2259    0.0000 C   0  0  0  0  0  0  0  0  0  0  0  0
   -6.6326   -5.8390    0.0000 N   0  0  0  0  0  0  0  0  0  0  0  0
   -6.2201   -6.5534    0.0000 C   0  0  0  0  0  0  0  0  0  0  0  0
   -5.4132   -6.3819    0.0000 C   0  0  0  0  0  0  0  0  0  0  0  0
   -4.8611   -6.9950    0.0000 C   0  0  0  0  0  0  0  0  0  0  0  0
   -5.1161   -7.7796    0.0000 C   0  0  0  0  0  0  0  0  0  0  0  0
   -4.5640   -8.3927    0.0000 O   0  0  0  0  0  0  0  0  0  0  0  0
   -4.8190   -9.1773    0.0000 C   0  0  0  0  0  0  0  0  0  0  0  0
   -5.9230   -7.9512    0.0000 C   0  0  0  0  0  0  0  0  0  0  0  0
   -6.4751   -7.3381    0.0000 C   0  0  0  0  0  0  0  0  0  0  0  0
   -2.4690   -3.9114    0.0000 N   0  0  0  0  0  0  0  0  0  0  0  0
   -1.7546   -4.3239    0.0000 C   0  0  0  0  0  0  0  0  0  0  0  0
   -1.0401   -3.9114    0.0000 C   0  0  0  0  0  0  0  0  0  0  0  0
   -0.3256   -4.3239    0.0000 C   0  0  0  0  0  0  0  0  0  0  0  0
    0.3889   -3.9114    0.0000 C   0  0  0  0  0  0  0  0  0  0  0  0
    1.1033   -4.3239    0.0000 C   0  0  0  0  0  0  0  0  0  0  0  0
  1  2  2  0  0  0  0
  2  3  1  0  0  0  0
  3  4  1  0  0  0  0
  4  5  2  0  0  0  0
  5  6  1  0  0  0  0
  6  7  4  0  0  0  0
  7  8  4  0  0  0  0
  8  9  4  0  0  0  0
  9 10  4  0  0  0  0
  6 10  4  0  0  0  0
 10 11  4  0  0  0  0
 11 12  4  0  0  0  0
 12 13  1  0  0  0  0
 13 14  1  0  0  0  0
 12 15  4  0  0  0  0
 15 16  4  0  0  0  0
  9 16  4  0  0  0  0
  2 17  1  0  0  0  0
 17 18  1  0  0  0  0
 18 19  1  0  0  0  0
 19 20  1  0  0  0  0
 20 21  1  0  0  0  0
 21 22  1  0  0  0  0
M  STY  1   1 DAT
M  SAL   1  1   8
M  SDT   1 MRV_IMPLICIT_H                                        
M  SDD   1     0.0000    0.0000    DR    ALL  0       0  
M  SED   1 IMPL_H1
M  END
>  <MOL_ID>
141
>  <Name_of_compounds>
Tegaserod Maleate
>  <Activity_Profiles>
1 0 1 1 1
>  <INITIAL_ID>
7599

>  <SUM_activity>
4

$$$$

  Marvin  08130811232D          

 28 31  0  0  0  0            999 V2000
    0.6143    6.4946    0.0000 C   0  0  0  0  0  0  0  0  0  0  0  0
    0.3593    7.2792    0.0000 C   0  0  0  0  0  0  0  0  0  0  0  0
    0.9113    7.8923    0.0000 N   0  0  0  0  0  0  0  0  0  0  0  0
    1.7183    7.7208    0.0000 C   0  0  0  0  0  0  0  0  0  0  0  0
    1.9733    6.9361    0.0000 C   0  0  0  0  0  0  0  0  0  0  0  0
    1.4212    6.3230    0.0000 C   0  0  0  0  0  0  0  0  0  0  0  0
    1.6762    5.5384    0.0000 N   0  0  0  0  0  0  0  0  0  0  0  0
    2.4608    5.2835    0.0000 C   0  0  0  0  0  0  0  0  0  0  0  0
    3.1753    5.6960    0.0000 C   0  0  0  0  0  0  0  0  0  0  0  0
    3.8897    5.2835    0.0000 C   0  0  0  0  0  0  0  0  0  0  0  0
    3.8897    4.4585    0.0000 C   0  0  0  0  0  0  0  0  0  0  0  0
    3.1753    4.0460    0.0000 C   0  0  0  0  0  0  0  0  0  0  0  0
    2.4608    4.4585    0.0000 C   0  0  0  0  0  0  0  0  0  0  0  0
    1.6762    4.2035    0.0000 N   0  0  0  0  0  0  0  0  0  0  0  0
    1.1912    4.8710    0.0000 C   0  0  0  0  0  0  0  0  0  0  0  0
    0.3662    4.8710    0.0000 O   0  0  0  0  0  0  0  0  0  0  0  0
    0.6564    8.6769    0.0000 C   0  0  0  0  0  0  0  0  0  0  0  0
   -0.1506    8.8484    0.0000 C   0  0  0  0  0  0  0  0  0  0  0  0
   -0.4055    9.6330    0.0000 C   0  0  0  0  0  0  0  0  0  0  0  0
   -1.2125    9.8046    0.0000 C   0  0  0  0  0  0  0  0  0  0  0  0
   -1.7645    9.1915    0.0000 O   0  0  0  0  0  0  0  0  0  0  0  0
   -1.4674   10.5892    0.0000 C   0  0  0  0  0  0  0  0  0  0  0  0
   -2.2744   10.7607    0.0000 C   0  0  0  0  0  0  0  0  0  0  0  0
   -2.5293   11.5453    0.0000 C   0  0  0  0  0  0  0  0  0  0  0  0
   -1.9773   12.1584    0.0000 C   0  0  0  0  0  0  0  0  0  0  0  0
   -1.1703   11.9869    0.0000 C   0  0  0  0  0  0  0  0  0  0  0  0
   -0.9154   11.2023    0.0000 C   0  0  0  0  0  0  0  0  0  0  0  0
   -2.2322   12.9431    0.0000 F   0  0  0  0  0  0  0  0  0  0  0  0
  1  2  1  0  0  0  0
  2  3  1  0  0  0  0
  3  4  1  0  0  0  0
  4  5  1  0  0  0  0
  5  6  1  0  0  0  0
  1  6  1  0  0  0  0
  6  7  1  0  0  0  0
  7  8  1  0  0  0  0
  8  9  4  0  0  0  0
  9 10  4  0  0  0  0
 10 11  4  0  0  0  0
 11 12  4  0  0  0  0
 12 13  4  0  0  0  0
  8 13  4  0  0  0  0
 13 14  1  0  0  0  0
 14 15  1  0  0  0  0
  7 15  1  0  0  0  0
 15 16  2  0  0  0  0
  3 17  1  0  0  0  0
 17 18  1  0  0  0  0
 18 19  1  0  0  0  0
 19 20  1  0  0  0  0
 20 21  2  0  0  0  0
 20 22  1  0  0  0  0
 22 23  4  0  0  0  0
 23 24  4  0  0  0  0
 24 25  4  0  0  0  0
 25 26  4  0  0  0  0
 26 27  4  0  0  0  0
 22 27  4  0  0  0  0
 25 28  1  0  0  0  0
M  END
>  <MOL_ID>
58
>  <Name_of_compounds>
benperidol
>  <Activity_Profiles>
1 1 1 1 0
>  <INITIAL_ID>
1306

>  <SUM_activity>
4

$$$$

  Marvin  08130811232D          

 26 30  0  0  0  0            999 V2000
    5.1635    5.2999    0.0000 C   0  0  0  0  0  0  0  0  0  0  0  0
    5.4356    4.5211    0.0000 O   0  0  0  0  0  0  0  0  0  0  0  0
    6.2461    4.3674    0.0000 C   0  0  0  0  0  0  0  0  0  0  0  0
    6.7846    4.9925    0.0000 O   0  0  0  0  0  0  0  0  0  0  0  0
    6.5183    3.5886    0.0000 C   0  0  0  0  0  0  0  0  0  0  0  0
    7.3288    3.4348    0.0000 C   0  0  0  0  0  0  0  0  0  0  0  0
    7.6010    2.6560    0.0000 C   0  0  0  0  0  0  0  0  0  0  0  0
    7.0626    2.0309    0.0000 C   0  0  0  0  0  0  0  0  0  0  0  0
    6.2520    2.1847    0.0000 C   0  0  0  0  0  0  0  0  0  0  0  0
    5.9799    2.9635    0.0000 C   0  0  0  0  0  0  0  0  0  0  0  0
    5.1693    3.1172    0.0000 C   0  0  0  0  0  0  0  0  0  0  0  0
    4.6309    2.4921    0.0000 C   0  0  0  0  0  0  0  0  0  0  0  0
    3.8204    2.6458    0.0000 C   0  0  0  0  0  0  0  0  0  0  0  0
    3.2820    2.0207    0.0000 C   0  0  0  0  0  0  0  0  0  0  0  0
    3.5541    1.2419    0.0000 C   0  0  0  0  0  0  0  0  0  0  0  0
    4.3647    1.0882    0.0000 C   0  0  0  0  0  0  0  0  0  0  0  0
    4.9031    1.7133    0.0000 N   0  0  0  0  0  0  0  0  0  0  0  0
    5.7136    1.5596    0.0000 C   0  0  0  0  0  0  0  0  0  0  0  0
    2.5211    2.3396    0.0000 C   0  0  0  0  0  0  0  0  0  0  0  0
    1.7750    1.9876    0.0000 C   0  0  0  0  0  0  0  0  0  0  0  0
    1.0970    2.4577    0.0000 C   0  0  0  0  0  0  0  0  0  0  0  0
    1.1652    3.2799    0.0000 C   0  0  0  0  0  0  0  0  0  0  0  0
    1.9113    3.6319    0.0000 C   0  0  0  0  0  0  0  0  0  0  0  0
    2.5893    3.1618    0.0000 C   0  0  0  0  0  0  0  0  0  0  0  0
    3.3923    3.3511    0.0000 N   0  0  0  0  0  0  0  0  0  0  0  0
    7.8673    4.0599    0.0000 O   0  0  0  0  0  0  0  0  0  0  0  0
  1  2  1  0  0  0  0
  2  3  1  0  0  0  0
  3  4  2  0  0  0  0
  3  5  1  0  0  0  0
  5  6  1  0  0  0  0
  6  7  1  0  0  0  0
  7  8  1  0  0  0  0
  8  9  1  0  0  0  0
  9 10  1  0  0  0  0
  5 10  1  0  0  0  0
 10 11  1  0  0  0  0
 11 12  1  0  0  0  0
 12 13  1  0  0  0  0
 13 14  4  0  0  0  0
 14 15  1  0  0  0  0
 15 16  1  0  0  0  0
 16 17  1  0  0  0  0
 12 17  1  0  0  0  0
 17 18  1  0  0  0  0
  9 18  1  0  0  0  0
 14 19  4  0  0  0  0
 19 20  4  0  0  0  0
 20 21  4  0  0  0  0
 21 22  4  0  0  0  0
 22 23  4  0  0  0  0
 23 24  4  0  0  0  0
 19 24  4  0  0  0  0
 24 25  4  0  0  0  0
 13 25  4  0  0  0  0
  6 26  1  0  0  0  0
M  STY  1   1 DAT
M  SAL   1  1  25
M  SDT   1 MRV_IMPLICIT_H                                        
M  SDD   1     0.0000    0.0000    DR    ALL  0       0  
M  SED   1 IMPL_H1
M  END
>  <MOL_ID>
119
>  <Name_of_compounds>
Yohimbine
>  <Activity_Profiles>
1 1 1 1 0
>  <INITIAL_ID>
2335

>  <SUM_activity>
4

$$$$

  Marvin  08130811232D          

 20 22  0  0  0  0            999 V2000
    1.5484   -5.4728    0.0000 C   0  0  0  0  0  0  0  0  0  0  0  0
    2.2629   -5.8853    0.0000 N   0  0  0  0  0  0  0  0  0  0  0  0
    2.9774   -5.4728    0.0000 C   0  0  0  0  0  0  0  0  0  0  0  0
    3.6918   -5.8853    0.0000 C   0  0  0  0  0  0  0  0  0  0  0  0
    4.4063   -5.4728    0.0000 C   0  0  0  0  0  0  0  0  0  0  0  0
    5.1208   -5.8853    0.0000 N   0  0  0  0  0  0  0  0  0  0  0  0
    5.8024   -5.4206    0.0000 C   0  0  0  0  0  0  0  0  0  0  0  0
    5.6188   -4.6163    0.0000 C   0  0  0  0  0  0  0  0  0  0  0  0
    6.2236   -4.0551    0.0000 C   0  0  0  0  0  0  0  0  0  0  0  0
    7.0120   -4.2983    0.0000 C   0  0  0  0  0  0  0  0  0  0  0  0
    7.1955   -5.1026    0.0000 C   0  0  0  0  0  0  0  0  0  0  0  0
    6.5908   -5.6637    0.0000 C   0  0  0  0  0  0  0  0  0  0  0  0
    6.8922   -6.4317    0.0000 C   0  0  0  0  0  0  0  0  0  0  0  0
    6.4797   -7.1462    0.0000 C   0  0  0  0  0  0  0  0  0  0  0  0
    5.6639   -7.2691    0.0000 C   0  0  0  0  0  0  0  0  0  0  0  0
    5.4803   -8.0735    0.0000 C   0  0  0  0  0  0  0  0  0  0  0  0
    4.6920   -8.3166    0.0000 C   0  0  0  0  0  0  0  0  0  0  0  0
    4.0872   -7.7555    0.0000 C   0  0  0  0  0  0  0  0  0  0  0  0
    4.2708   -6.9512    0.0000 C   0  0  0  0  0  0  0  0  0  0  0  0
    5.0591   -6.7080    0.0000 C   0  0  0  0  0  0  0  0  0  0  0  0
  1  2  1  0  0  0  0
  2  3  1  0  0  0  0
  3  4  1  0  0  0  0
  4  5  1  0  0  0  0
  5  6  1  0  0  0  0
  6  7  1  0  0  0  0
  7  8  4  0  0  0  0
  8  9  4  0  0  0  0
  9 10  4  0  0  0  0
 10 11  4  0  0  0  0
 11 12  4  0  0  0  0
  7 12  4  0  0  0  0
 12 13  1  0  0  0  0
 13 14  1  0  0  0  0
 14 15  1  0  0  0  0
 15 16  4  0  0  0  0
 16 17  4  0  0  0  0
 17 18  4  0  0  0  0
 18 19  4  0  0  0  0
 19 20  4  0  0  0  0
 15 20  4  0  0  0  0
  6 20  1  0  0  0  0
M  END
>  <MOL_ID>
65
>  <Name_of_compounds>
Desipramine
>  <Activity_Profiles>
1 1 1 0 1
>  <INITIAL_ID>
1317

>  <SUM_activity>
4

$$$$

  Marvin  08130811232D          

 28 30  0  0  0  0            999 V2000
   -4.5420   -4.0071    0.0000 C   0  0  0  0  0  0  0  0  0  0  0  0
   -4.5420   -4.8321    0.0000 C   0  0  0  0  0  0  0  0  0  0  0  0
   -5.2565   -5.2446    0.0000 C   0  0  0  0  0  0  0  0  0  0  0  0
   -5.2565   -6.0696    0.0000 C   0  0  0  0  0  0  0  0  0  0  0  0
   -5.9709   -6.4821    0.0000 C   0  0  0  0  0  0  0  0  0  0  0  0
   -5.9709   -7.3071    0.0000 C   0  0  0  0  0  0  0  0  0  0  0  0
   -6.6854   -7.7196    0.0000 C   0  0  0  0  0  0  0  0  0  0  0  0
   -7.3999   -7.3071    0.0000 C   0  0  0  0  0  0  0  0  0  0  0  0
   -7.3999   -6.4821    0.0000 C   0  0  0  0  0  0  0  0  0  0  0  0
   -6.6854   -6.0696    0.0000 C   0  0  0  0  0  0  0  0  0  0  0  0
   -4.5420   -6.4821    0.0000 C   0  0  0  0  0  0  0  0  0  0  0  0
   -3.8275   -6.0696    0.0000 C   0  0  0  0  0  0  0  0  0  0  0  0
   -3.1131   -6.4821    0.0000 C   0  0  0  0  0  0  0  0  0  0  0  0
   -3.1131   -7.3071    0.0000 C   0  0  0  0  0  0  0  0  0  0  0  0
   -3.8275   -7.7196    0.0000 C   0  0  0  0  0  0  0  0  0  0  0  0
   -4.5420   -7.3071    0.0000 C   0  0  0  0  0  0  0  0  0  0  0  0
   -2.3986   -7.7196    0.0000 O   0  0  0  0  0  0  0  0  0  0  0  0
   -1.6841   -7.3071    0.0000 C   0  0  0  0  0  0  0  0  0  0  0  0
   -0.9696   -7.7196    0.0000 C   0  0  0  0  0  0  0  0  0  0  0  0
   -0.2552   -7.3071    0.0000 N   0  0  0  0  0  0  0  0  0  0  0  0
   -0.2552   -6.4821    0.0000 C   0  0  0  0  0  0  0  0  0  0  0  0
    0.4593   -7.7196    0.0000 C   0  0  0  0  0  0  0  0  0  0  0  0
   -5.9709   -4.8321    0.0000 C   0  0  0  0  0  0  0  0  0  0  0  0
   -6.6854   -5.2446    0.0000 C   0  0  0  0  0  0  0  0  0  0  0  0
   -7.3999   -4.8321    0.0000 C   0  0  0  0  0  0  0  0  0  0  0  0
   -7.3999   -4.0071    0.0000 C   0  0  0  0  0  0  0  0  0  0  0  0
   -6.6854   -3.5946    0.0000 C   0  0  0  0  0  0  0  0  0  0  0  0
   -5.9709   -4.0071    0.0000 C   0  0  0  0  0  0  0  0  0  0  0  0
  1  2  1  0  0  0  0
  3  2  1  4  0  0  0
  3  4  2  0  0  0  0
  4  5  1  0  0  0  0
  5  6  4  0  0  0  0
  6  7  4  0  0  0  0
  7  8  4  0  0  0  0
  8  9  4  0  0  0  0
  9 10  4  0  0  0  0
  5 10  4  0  0  0  0
  4 11  1  0  0  0  0
 11 12  4  0  0  0  0
 12 13  4  0  0  0  0
 13 14  4  0  0  0  0
 14 15  4  0  0  0  0
 15 16  4  0  0  0  0
 11 16  4  0  0  0  0
 14 17  1  0  0  0  0
 17 18  1  0  0  0  0
 18 19  1  0  0  0  0
 19 20  1  0  0  0  0
 20 21  1  0  0  0  0
 20 22  1  0  0  0  0
  3 23  1  0  0  0  0
 23 24  4  0  0  0  0
 24 25  4  0  0  0  0
 25 26  4  0  0  0  0
 26 27  4  0  0  0  0
 27 28  4  0  0  0  0
 23 28  4  0  0  0  0
M  END
>  <MOL_ID>
47
>  <Name_of_compounds>
Tamoxifen
>  <Activity_Profiles>
1 1 1 1 0
>  <INITIAL_ID>
678

>  <SUM_activity>
4

$$$$

  Marvin  08130811232D          

 16 17  0  0  1  0            999 V2000
    1.0717   -0.2578    0.0000 C   0  0  0  0  0  0  0  0  0  0  0  0
    1.0717   -1.0828    0.0000 C   0  0  0  0  0  0  0  0  0  0  0  0
    1.7862   -1.4953    0.0000 C   0  0  0  0  0  0  0  0  0  0  0  0
    1.7862   -2.3203    0.0000 N   0  0  0  0  0  0  0  0  0  0  0  0
    2.5007   -2.7328    0.0000 C   0  0  0  0  0  0  0  0  0  0  0  0
    2.5007   -3.5578    0.0000 C   0  0  2  0  0  0  0  0  0  0  0  0
    3.2151   -3.9703    0.0000 C   0  0  0  0  0  0  0  0  0  0  0  0
    3.9296   -3.5578    0.0000 C   0  0  0  0  0  0  0  0  0  0  0  0
    4.6441   -3.9703    0.0000 C   0  0  0  0  0  0  0  0  0  0  0  0
    4.6441   -4.7953    0.0000 C   0  0  0  0  0  0  0  0  0  0  0  0
    3.9296   -5.2078    0.0000 C   0  0  0  0  0  0  0  0  0  0  0  0
    3.9296   -6.0328    0.0000 O   0  0  0  0  0  0  0  0  0  0  0  0
    3.2151   -4.7953    0.0000 C   0  0  0  0  0  0  0  0  0  0  0  0
    1.7862   -3.9703    0.0000 C   0  0  0  0  0  0  0  0  0  0  0  0
    1.0717   -3.5578    0.0000 C   0  0  0  0  0  0  0  0  0  0  0  0
    1.0717   -2.7328    0.0000 C   0  0  0  0  0  0  0  0  0  0  0  0
  1  2  1  0  0  0  0
  2  3  1  0  0  0  0
  3  4  1  0  0  0  0
  4  5  1  0  0  0  0
  5  6  1  0  0  0  0
  6  7  1  0  0  0  0
  7  8  4  0  0  0  0
  8  9  4  0  0  0  0
  9 10  4  0  0  0  0
 10 11  4  0  0  0  0
 11 12  1  0  0  0  0
 11 13  4  0  0  0  0
  7 13  4  0  0  0  0
  6 14  1  6  0  0  0
 14 15  1  0  0  0  0
 15 16  1  0  0  0  0
  4 16  1  0  0  0  0
M  END
>  <MOL_ID>
49
>  <Name_of_compounds>
(S)-(-)-3-(3-Hydroxyphenyl)-N-propylpiperidine
>  <Activity_Profiles>
0 1 1 1 1
>  <INITIAL_ID>
684

>  <SUM_activity>
4

$$$$

  Marvin  08130811232D          

 21 23  0  0  0  0            999 V2000
    4.8553    3.4770    0.0000 C   0  0  0  0  0  0  0  0  0  0  0  0
    4.0303    3.4770    0.0000 N   0  0  0  0  0  0  0  0  0  0  0  0
    3.6724    2.7337    0.0000 C   0  0  0  0  0  0  0  0  0  0  0  0
    2.8681    2.5501    0.0000 C   0  0  0  0  0  0  0  0  0  0  0  0
    2.2231    3.0645    0.0000 C   0  0  0  0  0  0  0  0  0  0  0  0
    1.5086    2.6520    0.0000 C   0  0  0  0  0  0  0  0  0  0  0  0
    0.7941    3.0645    0.0000 C   0  0  0  0  0  0  0  0  0  0  0  0
    0.7941    3.8895    0.0000 C   0  0  0  0  0  0  0  0  0  0  0  0
    1.5086    4.3020    0.0000 C   0  0  0  0  0  0  0  0  0  0  0  0
    2.2231    3.8895    0.0000 C   0  0  0  0  0  0  0  0  0  0  0  0
    2.8681    4.4039    0.0000 C   0  0  0  0  0  0  0  0  0  0  0  0
    3.6724    4.2203    0.0000 C   0  0  0  0  0  0  0  0  0  0  0  0
    2.6845    5.2082    0.0000 C   0  0  0  0  0  0  0  0  0  0  0  0
    1.8961    5.4514    0.0000 C   0  0  0  0  0  0  0  0  0  0  0  0
    1.7126    6.2557    0.0000 C   0  0  0  0  0  0  0  0  0  0  0  0
    2.3173    6.8168    0.0000 C   0  0  0  0  0  0  0  0  0  0  0  0
    3.1057    6.5737    0.0000 C   0  0  0  0  0  0  0  0  0  0  0  0
    3.2893    5.7693    0.0000 C   0  0  0  0  0  0  0  0  0  0  0  0
    0.0796    4.3020    0.0000 O   0  0  0  0  0  0  0  0  0  0  0  0
    0.0796    2.6520    0.0000 O   0  0  0  0  0  0  0  0  0  0  0  0
    1.5086    1.8270    0.0000 Cl  0  0  0  0  0  0  0  0  0  0  0  0
  1  2  1  0  0  0  0
  2  3  1  0  0  0  0
  3  4  1  0  0  0  0
  4  5  1  0  0  0  0
  5  6  4  0  0  0  0
  6  7  4  0  0  0  0
  7  8  4  0  0  0  0
  8  9  4  0  0  0  0
  9 10  4  0  0  0  0
  5 10  4  0  0  0  0
 10 11  1  0  0  0  0
 11 12  1  0  0  0  0
  2 12  1  0  0  0  0
 11 13  1  0  0  0  0
 13 14  4  0  0  0  0
 14 15  4  0  0  0  0
 15 16  4  0  0  0  0
 16 17  4  0  0  0  0
 17 18  4  0  0  0  0
 13 18  4  0  0  0  0
  8 19  1  0  0  0  0
  7 20  1  0  0  0  0
  6 21  1  0  0  0  0
M  END
>  <MOL_ID>
72
>  <Name_of_compounds>
SKF 82957
>  <Activity_Profiles>
1 1 0 1 1
>  <INITIAL_ID>
1327

>  <SUM_activity>
4

$$$$

  Marvin  08130811232D          

 26 29  0  0  0  0            999 V2000
   -0.7145    2.0625    0.0000 C   0  0  0  0  0  0  0  0  0  0  0  0
   -0.7145    1.2375    0.0000 N   0  0  0  0  0  0  0  0  0  0  0  0
   -1.4289    0.8250    0.0000 C   0  0  0  0  0  0  0  0  0  0  0  0
   -1.4289   -0.0000    0.0000 C   0  0  0  0  0  0  0  0  0  0  0  0
   -0.7145   -0.4125    0.0000 C   0  0  0  0  0  0  0  0  0  0  0  0
   -0.7145   -1.2375    0.0000 C   0  0  0  0  0  0  0  0  0  0  0  0
    0.0000   -1.6500    0.0000 C   0  0  0  0  0  0  0  0  0  0  0  0
    0.7145   -1.2375    0.0000 C   0  0  0  0  0  0  0  0  0  0  0  0
    0.7145   -0.4125    0.0000 C   0  0  0  0  0  0  0  0  0  0  0  0
    0.0000    0.0000    0.0000 C   0  0  0  0  0  0  0  0  0  0  0  0
    0.0000    0.8250    0.0000 C   0  0  0  0  0  0  0  0  0  0  0  0
    0.7145    1.2375    0.0000 C   0  0  0  0  0  0  0  0  0  0  0  0
    1.4289    0.8250    0.0000 C   0  0  0  0  0  0  0  0  0  0  0  0
    2.1434    1.2375    0.0000 C   0  0  0  0  0  0  0  0  0  0  0  0
    2.8579    0.8250    0.0000 C   0  0  0  0  0  0  0  0  0  0  0  0
    2.8579   -0.0000    0.0000 C   0  0  0  0  0  0  0  0  0  0  0  0
    2.1434   -0.4125    0.0000 C   0  0  0  0  0  0  0  0  0  0  0  0
    1.4289   -0.0000    0.0000 C   0  0  0  0  0  0  0  0  0  0  0  0
    3.5724   -0.4125    0.0000 O   0  0  0  0  0  0  0  0  0  0  0  0
    3.5724   -1.2375    0.0000 C   0  0  0  0  0  0  0  0  0  0  0  0
    3.5724    1.2375    0.0000 O   0  0  0  0  0  0  0  0  0  0  0  0
    4.2868    0.8250    0.0000 C   0  0  0  0  0  0  0  0  0  0  0  0
    1.4289   -1.6500    0.0000 O   0  0  0  0  0  0  0  0  0  0  0  0
    2.1434   -1.2375    0.0000 C   0  0  0  0  0  0  0  0  0  0  0  0
    0.0000   -2.4750    0.0000 O   0  0  0  0  0  0  0  0  0  0  0  0
    0.7145   -2.8875    0.0000 C   0  0  0  0  0  0  0  0  0  0  0  0
  1  2  1  0  0  0  0
  2  3  1  0  0  0  0
  3  4  1  0  0  0  0
  4  5  1  0  0  0  0
  5  6  4  0  0  0  0
  6  7  4  0  0  0  0
  7  8  4  0  0  0  0
  8  9  4  0  0  0  0
  9 10  4  0  0  0  0
  5 10  4  0  0  0  0
 10 11  1  0  0  0  0
  2 11  1  0  0  0  0
 11 12  1  0  0  0  0
 12 13  1  0  0  0  0
 13 14  4  0  0  0  0
 14 15  4  0  0  0  0
 15 16  4  0  0  0  0
 16 17  4  0  0  0  0
 17 18  4  0  0  0  0
 13 18  4  0  0  0  0
  9 18  1  0  0  0  0
 16 19  1  0  0  0  0
 19 20  1  0  0  0  0
 15 21  1  0  0  0  0
 21 22  1  0  0  0  0
  8 23  1  0  0  0  0
 23 24  1  0  0  0  0
  7 25  1  0  0  0  0
 25 26  1  0  0  0  0
M  END
>  <MOL_ID>
132
>  <Name_of_compounds>
Glaucine
>  <Activity_Profiles>
1 1 1 1 0
>  <INITIAL_ID>
3248

>  <SUM_activity>
4

$$$$

  Marvin  08130811232D          

 31 33  0  0  0  0            999 V2000
   -2.8521   -5.2168    0.0000 C   0  0  0  0  0  0  0  0  0  0  0  0
   -2.6806   -6.0238    0.0000 C   0  0  0  0  0  0  0  0  0  0  0  0
   -3.2937   -6.5758    0.0000 C   0  0  0  0  0  0  0  0  0  0  0  0
   -3.1221   -7.3828    0.0000 C   0  0  0  0  0  0  0  0  0  0  0  0
   -3.7352   -7.9348    0.0000 C   0  0  0  0  0  0  0  0  0  0  0  0
   -3.6490   -8.7553    0.0000 C   0  0  0  0  0  0  0  0  0  0  0  0
   -4.4027   -9.0909    0.0000 C   0  0  0  0  0  0  0  0  0  0  0  0
   -4.6576   -9.8755    0.0000 C   0  0  0  0  0  0  0  0  0  0  0  0
   -5.4646  -10.0470    0.0000 C   0  0  0  0  0  0  0  0  0  0  0  0
   -6.0166   -9.4339    0.0000 C   0  0  0  0  0  0  0  0  0  0  0  0
   -5.7617   -8.6493    0.0000 C   0  0  0  0  0  0  0  0  0  0  0  0
   -4.9547   -8.4778    0.0000 C   0  0  0  0  0  0  0  0  0  0  0  0
   -4.5422   -7.7633    0.0000 O   0  0  0  0  0  0  0  0  0  0  0  0
   -2.9345   -9.1678    0.0000 C   0  0  0  0  0  0  0  0  0  0  0  0
   -2.9345   -9.9928    0.0000 O   0  0  0  0  0  0  0  0  0  0  0  0
   -2.2201   -8.7553    0.0000 C   0  0  0  0  0  0  0  0  0  0  0  0
   -2.2201   -7.9303    0.0000 C   0  0  0  0  0  0  0  0  0  0  0  0
   -1.5056   -7.5178    0.0000 C   0  0  0  0  0  0  0  0  0  0  0  0
   -0.7911   -7.9303    0.0000 C   0  0  0  0  0  0  0  0  0  0  0  0
   -0.7911   -8.7553    0.0000 C   0  0  0  0  0  0  0  0  0  0  0  0
   -1.5056   -9.1678    0.0000 C   0  0  0  0  0  0  0  0  0  0  0  0
   -0.0767   -9.1678    0.0000 I   0  0  0  0  0  0  0  0  0  0  0  0
   -0.0767   -7.5178    0.0000 O   0  0  0  0  0  0  0  0  0  0  0  0
    0.6378   -7.9303    0.0000 C   0  0  0  0  0  0  0  0  0  0  0  0
    1.3523   -7.5178    0.0000 C   0  0  0  0  0  0  0  0  0  0  0  0
    2.0668   -7.9303    0.0000 N   0  0  0  0  0  0  0  0  0  0  0  0
    2.0668   -8.7553    0.0000 C   0  0  0  0  0  0  0  0  0  0  0  0
    2.7812   -9.1678    0.0000 C   0  0  0  0  0  0  0  0  0  0  0  0
    2.7812   -7.5178    0.0000 C   0  0  0  0  0  0  0  0  0  0  0  0
    3.4957   -7.9303    0.0000 C   0  0  0  0  0  0  0  0  0  0  0  0
   -1.5056   -6.6928    0.0000 I   0  0  0  0  0  0  0  0  0  0  0  0
  1  2  1  0  0  0  0
  2  3  1  0  0  0  0
  3  4  1  0  0  0  0
  4  5  1  0  0  0  0
  5  6  4  0  0  0  0
  6  7  4  0  0  0  0
  7  8  4  0  0  0  0
  8  9  4  0  0  0  0
  9 10  4  0  0  0  0
 10 11  4  0  0  0  0
 11 12  4  0  0  0  0
  7 12  4  0  0  0  0
 12 13  4  0  0  0  0
  5 13  4  0  0  0  0
  6 14  1  0  0  0  0
 14 15  2  0  0  0  0
 14 16  1  0  0  0  0
 16 17  4  0  0  0  0
 17 18  4  0  0  0  0
 18 19  4  0  0  0  0
 19 20  4  0  0  0  0
 20 21  4  0  0  0  0
 16 21  4  0  0  0  0
 20 22  1  0  0  0  0
 19 23  1  0  0  0  0
 23 24  1  0  0  0  0
 24 25  1  0  0  0  0
 25 26  1  0  0  0  0
 26 27  1  0  0  0  0
 27 28  1  0  0  0  0
 26 29  1  0  0  0  0
 29 30  1  0  0  0  0
 18 31  1  0  0  0  0
M  END
>  <MOL_ID>
68
>  <Name_of_compounds>
Amiodarone
>  <Activity_Profiles>
1 1 1 0 1
>  <INITIAL_ID>
1320

>  <SUM_activity>
4

$$$$

  Marvin  08130811232D          

 30 33  0  0  0  0            999 V2000
    2.7864   -0.7117    0.0000 C   0  0  0  0  0  0  0  0  0  0  0  0
    2.7864   -1.5367    0.0000 N   0  0  0  0  0  0  0  0  0  0  0  0
    2.0719   -1.9492    0.0000 C   0  0  0  0  0  0  0  0  0  0  0  0
    1.3575   -1.5367    0.0000 C   0  0  0  0  0  0  0  0  0  0  0  0
    0.6430   -1.9492    0.0000 C   0  0  0  0  0  0  0  0  0  0  0  0
   -0.0715   -1.5367    0.0000 N   0  0  0  0  0  0  0  0  0  0  0  0
   -0.7531   -2.0015    0.0000 C   0  0  0  0  0  0  0  0  0  0  0  0
   -0.5695   -2.8058    0.0000 C   0  0  0  0  0  0  0  0  0  0  0  0
   -1.1743   -3.3669    0.0000 C   0  0  0  0  0  0  0  0  0  0  0  0
   -1.9626   -3.1237    0.0000 C   0  0  0  0  0  0  0  0  0  0  0  0
   -2.1462   -2.3194    0.0000 C   0  0  0  0  0  0  0  0  0  0  0  0
   -1.5415   -1.7583    0.0000 C   0  0  0  0  0  0  0  0  0  0  0  0
   -1.8429   -0.9903    0.0000 C   0  0  0  0  0  0  0  0  0  0  0  0
   -1.4304   -0.2758    0.0000 C   0  0  0  0  0  0  0  0  0  0  0  0
   -0.6146   -0.1529    0.0000 C   0  0  0  0  0  0  0  0  0  0  0  0
   -0.4310    0.6514    0.0000 C   0  0  0  0  0  0  0  0  0  0  0  0
    0.3573    0.8946    0.0000 C   0  0  0  0  0  0  0  0  0  0  0  0
    0.9621    0.3335    0.0000 C   0  0  0  0  0  0  0  0  0  0  0  0
    0.7785   -0.4709    0.0000 C   0  0  0  0  0  0  0  0  0  0  0  0
   -0.0098   -0.7140    0.0000 C   0  0  0  0  0  0  0  0  0  0  0  0
    3.5009   -1.9492    0.0000 C   0  0  0  0  0  0  0  0  0  0  0  0
    4.2154   -1.5367    0.0000 C   0  0  0  0  0  0  0  0  0  0  0  0
    4.2154   -0.7117    0.0000 O   0  0  0  0  0  0  0  0  0  0  0  0
    4.9298   -1.9492    0.0000 C   0  0  0  0  0  0  0  0  0  0  0  0
    5.6443   -1.5367    0.0000 C   0  0  0  0  0  0  0  0  0  0  0  0
    6.3588   -1.9492    0.0000 C   0  0  0  0  0  0  0  0  0  0  0  0
    6.3588   -2.7742    0.0000 C   0  0  0  0  0  0  0  0  0  0  0  0
    5.6443   -3.1867    0.0000 C   0  0  0  0  0  0  0  0  0  0  0  0
    4.9298   -2.7742    0.0000 C   0  0  0  0  0  0  0  0  0  0  0  0
    7.0732   -3.1867    0.0000 Cl  0  0  0  0  0  0  0  0  0  0  0  0
  1  2  1  0  0  0  0
  2  3  1  0  0  0  0
  3  4  1  0  0  0  0
  4  5  1  0  0  0  0
  5  6  1  0  0  0  0
  6  7  1  0  0  0  0
  7  8  4  0  0  0  0
  8  9  4  0  0  0  0
  9 10  4  0  0  0  0
 10 11  4  0  0  0  0
 11 12  4  0  0  0  0
  7 12  4  0  0  0  0
 12 13  1  0  0  0  0
 13 14  1  0  0  0  0
 14 15  1  0  0  0  0
 15 16  4  0  0  0  0
 16 17  4  0  0  0  0
 17 18  4  0  0  0  0
 18 19  4  0  0  0  0
 19 20  4  0  0  0  0
 15 20  4  0  0  0  0
  6 20  1  0  0  0  0
  2 21  1  0  0  0  0
 21 22  1  0  0  0  0
 22 23  2  0  0  0  0
 22 24  1  0  0  0  0
 24 25  4  0  0  0  0
 25 26  4  0  0  0  0
 26 27  4  0  0  0  0
 27 28  4  0  0  0  0
 28 29  4  0  0  0  0
 24 29  4  0  0  0  0
 27 30  1  0  0  0  0
M  END
>  <MOL_ID>
131
>  <Name_of_compounds>
Lofepramine
>  <Activity_Profiles>
1 1 1 1 1
>  <INITIAL_ID>
3244

>  <SUM_activity>
5

$$$$

  Marvin  08130811232D          

 29 32  0  0  0  0            999 V2000
   -3.2521    1.7638    0.0000 C   0  0  0  0  0  0  0  0  0  0  0  0
   -2.5376    2.1763    0.0000 C   0  0  0  0  0  0  0  0  0  0  0  0
   -2.5376    3.0013    0.0000 C   0  0  0  0  0  0  0  0  0  0  0  0
   -1.8231    3.4138    0.0000 C   0  0  0  0  0  0  0  0  0  0  0  0
   -1.8231    4.2388    0.0000 O   0  0  0  0  0  0  0  0  0  0  0  0
   -1.1087    3.0013    0.0000 N   0  0  0  0  0  0  0  0  0  0  0  0
   -0.3942    3.4138    0.0000 C   0  0  0  0  0  0  0  0  0  0  0  0
    0.3203    3.0013    0.0000 C   0  0  0  0  0  0  0  0  0  0  0  0
    0.3203    2.1763    0.0000 C   0  0  0  0  0  0  0  0  0  0  0  0
   -0.3942    1.7638    0.0000 C   0  0  0  0  0  0  0  0  0  0  0  0
   -1.1087    2.1763    0.0000 C   0  0  0  0  0  0  0  0  0  0  0  0
   -1.8231    1.7638    0.0000 N   0  0  0  0  0  0  0  0  0  0  0  0
   -3.2521    3.4138    0.0000 C   0  0  0  0  0  0  0  0  0  0  0  0
   -3.9665    3.0013    0.0000 C   0  0  0  0  0  0  0  0  0  0  0  0
   -4.6810    3.4138    0.0000 N   0  0  0  0  0  0  0  0  0  0  0  0
   -5.3955    3.0013    0.0000 C   0  0  0  0  0  0  0  0  0  0  0  0
   -6.1100    3.4138    0.0000 C   0  0  0  0  0  0  0  0  0  0  0  0
   -6.1100    4.2388    0.0000 C   0  0  0  0  0  0  0  0  0  0  0  0
   -5.3955    4.6513    0.0000 C   0  0  0  0  0  0  0  0  0  0  0  0
   -4.6810    4.2388    0.0000 C   0  0  0  0  0  0  0  0  0  0  0  0
   -6.8244    4.6513    0.0000 C   0  0  0  0  0  0  0  0  0  0  0  0
   -6.8244    5.4763    0.0000 O   0  0  0  0  0  0  0  0  0  0  0  0
   -7.5389    4.2388    0.0000 C   0  0  0  0  0  0  0  0  0  0  0  0
   -7.5389    3.4138    0.0000 C   0  0  0  0  0  0  0  0  0  0  0  0
   -8.2534    3.0013    0.0000 C   0  0  0  0  0  0  0  0  0  0  0  0
   -8.9678    3.4138    0.0000 C   0  0  0  0  0  0  0  0  0  0  0  0
   -8.9678    4.2388    0.0000 C   0  0  0  0  0  0  0  0  0  0  0  0
   -8.2534    4.6513    0.0000 C   0  0  0  0  0  0  0  0  0  0  0  0
   -9.6823    3.0013    0.0000 F   0  0  0  0  0  0  0  0  0  0  0  0
  1  2  1  0  0  0  0
  2  3  2  0  0  0  0
  3  4  1  0  0  0  0
  4  5  2  0  0  0  0
  4  6  1  0  0  0  0
  6  7  1  0  0  0  0
  7  8  2  0  0  0  0
  8  9  1  0  0  0  0
  9 10  2  0  0  0  0
 10 11  1  0  0  0  0
  6 11  1  0  0  0  0
 11 12  2  0  0  0  0
  2 12  1  0  0  0  0
  3 13  1  0  0  0  0
 13 14  1  0  0  0  0
 14 15  1  0  0  0  0
 15 16  1  0  0  0  0
 16 17  1  0  0  0  0
 17 18  1  0  0  0  0
 18 19  1  0  0  0  0
 19 20  1  0  0  0  0
 15 20  1  0  0  0  0
 18 21  1  0  0  0  0
 21 22  2  0  0  0  0
 21 23  1  0  0  0  0
 23 24  4  0  0  0  0
 24 25  4  0  0  0  0
 25 26  4  0  0  0  0
 26 27  4  0  0  0  0
 27 28  4  0  0  0  0
 23 28  4  0  0  0  0
 26 29  1  0  0  0  0
M  END
>  <MOL_ID>
129
>  <Name_of_compounds>
Pirenperone
>  <Activity_Profiles>
1 1 1 1 1
>  <INITIAL_ID>
2941

>  <SUM_activity>
5

$$$$

  Marvin  08130811232D          

 22 25  0  0  0  0            999 V2000
    1.6139   -1.3226    0.0000 C   0  0  0  0  0  0  0  0  0  0  0  0
    2.4161   -1.1300    0.0000 C   0  0  0  0  0  0  0  0  0  0  0  0
    2.7318   -0.3678    0.0000 C   0  0  0  0  0  0  0  0  0  0  0  0
    3.5543   -0.4326    0.0000 C   0  0  0  0  0  0  0  0  0  0  0  0
    4.0614    0.2181    0.0000 C   0  0  0  0  0  0  0  0  0  0  0  0
    4.8864    0.2273    0.0000 N   0  0  0  0  0  0  0  0  0  0  0  0
    5.4079   -0.4119    0.0000 C   0  0  0  0  0  0  0  0  0  0  0  0
    6.1935   -0.1599    0.0000 C   0  0  0  0  0  0  0  0  0  0  0  0
    6.8045   -0.7143    0.0000 C   0  0  0  0  0  0  0  0  0  0  0  0
    6.6300   -1.5206    0.0000 C   0  0  0  0  0  0  0  0  0  0  0  0
    5.8444   -1.7725    0.0000 C   0  0  0  0  0  0  0  0  0  0  0  0
    5.2334   -1.2182    0.0000 C   0  0  0  0  0  0  0  0  0  0  0  0
    4.4941   -1.5844    0.0000 N   0  0  0  0  0  0  0  0  0  0  0  0
    3.7469   -1.2348    0.0000 C   0  0  0  0  0  0  0  0  0  0  0  0
    3.0434   -1.6659    0.0000 S   0  0  0  0  0  0  0  0  0  0  0  0
    3.6952    0.9574    0.0000 N   0  0  0  0  0  0  0  0  0  0  0  0
    2.8719    1.0098    0.0000 C   0  0  0  0  0  0  0  0  0  0  0  0
    2.5056    1.7491    0.0000 C   0  0  0  0  0  0  0  0  0  0  0  0
    2.9627    2.4359    0.0000 N   0  0  0  0  0  0  0  0  0  0  0  0
    3.7860    2.3834    0.0000 C   0  0  0  0  0  0  0  0  0  0  0  0
    4.1523    1.6442    0.0000 C   0  0  0  0  0  0  0  0  0  0  0  0
    2.5965    3.1751    0.0000 C   0  0  0  0  0  0  0  0  0  0  0  0
  1  2  1  0  0  0  0
  2  3  2  0  0  0  0
  3  4  1  0  0  0  0
  4  5  2  0  0  0  0
  5  6  1  0  0  0  0
  6  7  1  0  0  0  0
  7  8  4  0  0  0  0
  8  9  4  0  0  0  0
  9 10  4  0  0  0  0
 10 11  4  0  0  0  0
 11 12  4  0  0  0  0
  7 12  4  0  0  0  0
 12 13  1  0  0  0  0
 13 14  2  0  0  0  0
  4 14  1  0  0  0  0
 14 15  1  0  0  0  0
  2 15  1  0  0  0  0
  5 16  1  0  0  0  0
 16 17  1  0  0  0  0
 17 18  1  0  0  0  0
 18 19  1  0  0  0  0
 19 20  1  0  0  0  0
 20 21  1  0  0  0  0
 16 21  1  0  0  0  0
 19 22  1  0  0  0  0
M  END
>  <MOL_ID>
15
>  <Name_of_compounds>
Olanzapine
>  <Activity_Profiles>
1 1 1 1 1
>  <INITIAL_ID>
115

>  <SUM_activity>
5

$$$$

  Marvin  08130811232D          

 19 20  0  0  0  0            999 V2000
   -1.6546   -1.8237    0.0000 C   0  0  0  0  0  0  0  0  0  0  0  0
   -0.9401   -2.2362    0.0000 C   0  0  0  0  0  0  0  0  0  0  0  0
   -0.2256   -1.8237    0.0000 C   0  0  0  0  0  0  0  0  0  0  0  0
    0.4889   -2.2362    0.0000 C   0  0  0  0  0  0  0  0  0  0  0  0
    0.4889   -3.0612    0.0000 N   0  0  0  0  0  0  0  0  0  0  0  0
   -0.2256   -3.4737    0.0000 C   0  0  0  0  0  0  0  0  0  0  0  0
   -0.9401   -3.0612    0.0000 C   0  0  0  0  0  0  0  0  0  0  0  0
    1.2033   -3.4737    0.0000 C   0  0  0  0  0  0  0  0  0  0  0  0
    1.9178   -3.0612    0.0000 C   0  0  0  0  0  0  0  0  0  0  0  0
    2.6323   -3.4737    0.0000 C   0  0  0  0  0  0  0  0  0  0  0  0
    3.3467   -3.0612    0.0000 C   0  0  0  0  0  0  0  0  0  0  0  0
    3.3467   -2.2362    0.0000 O   0  0  0  0  0  0  0  0  0  0  0  0
    4.0612   -3.4737    0.0000 C   0  0  0  0  0  0  0  0  0  0  0  0
    4.7757   -3.0612    0.0000 C   0  0  0  0  0  0  0  0  0  0  0  0
    5.4902   -3.4737    0.0000 C   0  0  0  0  0  0  0  0  0  0  0  0
    5.4902   -4.2987    0.0000 C   0  0  0  0  0  0  0  0  0  0  0  0
    4.7757   -4.7112    0.0000 C   0  0  0  0  0  0  0  0  0  0  0  0
    4.0612   -4.2987    0.0000 C   0  0  0  0  0  0  0  0  0  0  0  0
    6.2046   -4.7112    0.0000 F   0  0  0  0  0  0  0  0  0  0  0  0
  1  2  1  0  0  0  0
  2  3  1  0  0  0  0
  3  4  1  0  0  0  0
  4  5  1  0  0  0  0
  5  6  1  0  0  0  0
  6  7  1  0  0  0  0
  2  7  1  0  0  0  0
  5  8  1  0  0  0  0
  8  9  1  0  0  0  0
  9 10  1  0  0  0  0
 10 11  1  0  0  0  0
 11 12  2  0  0  0  0
 11 13  1  0  0  0  0
 13 14  4  0  0  0  0
 14 15  4  0  0  0  0
 15 16  4  0  0  0  0
 16 17  4  0  0  0  0
 17 18  4  0  0  0  0
 13 18  4  0  0  0  0
 16 19  1  0  0  0  0
M  END
>  <MOL_ID>
14
>  <Name_of_compounds>
Melperone
>  <Activity_Profiles>
1 1 1 1 1
>  <INITIAL_ID>
114

>  <SUM_activity>
5

$$$$

  Marvin  08130811232D          

 19 22  0  0  0  0            999 V2000
    6.6931    5.9382    0.0000 C   0  0  0  0  0  0  0  0  0  0  0  0
    6.6931    5.1132    0.0000 N   0  0  0  0  0  0  0  0  0  0  0  0
    7.3605    4.6283    0.0000 C   0  0  0  0  0  0  0  0  0  0  0  0
    7.1056    3.8437    0.0000 C   0  0  0  0  0  0  0  0  0  0  0  0
    7.6200    3.1986    0.0000 C   0  0  0  0  0  0  0  0  0  0  0  0
    7.4364    2.3943    0.0000 C   0  0  0  0  0  0  0  0  0  0  0  0
    8.0411    1.8332    0.0000 C   0  0  0  0  0  0  0  0  0  0  0  0
    8.8295    2.0764    0.0000 C   0  0  0  0  0  0  0  0  0  0  0  0
    9.0131    2.8807    0.0000 C   0  0  0  0  0  0  0  0  0  0  0  0
    8.4083    3.4418    0.0000 C   0  0  0  0  0  0  0  0  0  0  0  0
    6.6931    2.0364    0.0000 O   0  0  0  0  0  0  0  0  0  0  0  0
    5.9498    2.3943    0.0000 C   0  0  0  0  0  0  0  0  0  0  0  0
    5.3450    1.8332    0.0000 C   0  0  0  0  0  0  0  0  0  0  0  0
    4.5567    2.0764    0.0000 C   0  0  0  0  0  0  0  0  0  0  0  0
    4.3731    2.8807    0.0000 C   0  0  0  0  0  0  0  0  0  0  0  0
    4.9779    3.4418    0.0000 C   0  0  0  0  0  0  0  0  0  0  0  0
    5.7662    3.1986    0.0000 C   0  0  0  0  0  0  0  0  0  0  0  0
    6.2806    3.8437    0.0000 C   0  0  0  0  0  0  0  0  0  0  0  0
    6.0256    4.6283    0.0000 C   0  0  0  0  0  0  0  0  0  0  0  0
  1  2  1  0  0  0  0
  2  3  1  0  0  0  0
  3  4  1  0  0  0  0
  4  5  1  0  0  0  0
  5  6  4  0  0  0  0
  6  7  4  0  0  0  0
  7  8  4  0  0  0  0
  8  9  4  0  0  0  0
  9 10  4  0  0  0  0
  5 10  4  0  0  0  0
  6 11  1  0  0  0  0
 11 12  1  0  0  0  0
 12 13  4  0  0  0  0
 13 14  4  0  0  0  0
 14 15  4  0  0  0  0
 15 16  4  0  0  0  0
 16 17  4  0  0  0  0
 12 17  4  0  0  0  0
 17 18  1  0  0  0  0
  4 18  1  0  0  0  0
 18 19  1  0  0  0  0
  2 19  1  0  0  0  0
M  END
>  <MOL_ID>
16
>  <Name_of_compounds>
ORG-5222
>  <Activity_Profiles>
1 1 1 1 1
>  <INITIAL_ID>
116

>  <SUM_activity>
5

$$$$

  Marvin  08130811232D          

 23 26  0  0  0  0            999 V2000
    8.9267    7.6110    0.0000 C   0  0  0  0  0  0  0  0  0  0  0  0
    8.5688    6.8677    0.0000 N   0  0  0  0  0  0  0  0  0  0  0  0
    9.0335    6.1861    0.0000 C   0  0  0  0  0  0  0  0  0  0  0  0
    8.6756    5.4428    0.0000 C   0  0  0  0  0  0  0  0  0  0  0  0
    7.8529    5.3811    0.0000 N   0  0  0  0  0  0  0  0  0  0  0  0
    7.3881    6.0628    0.0000 C   0  0  0  0  0  0  0  0  0  0  0  0
    7.7461    6.8061    0.0000 C   0  0  0  0  0  0  0  0  0  0  0  0
    7.4949    4.6378    0.0000 C   0  0  0  0  0  0  0  0  0  0  0  0
    8.0093    3.9928    0.0000 C   0  0  0  0  0  0  0  0  0  0  0  0
    8.7976    4.2360    0.0000 C   0  0  0  0  0  0  0  0  0  0  0  0
    9.4024    3.6749    0.0000 C   0  0  0  0  0  0  0  0  0  0  0  0
    9.2188    2.8706    0.0000 C   0  0  0  0  0  0  0  0  0  0  0  0
    8.4305    2.6274    0.0000 C   0  0  0  0  0  0  0  0  0  0  0  0
    7.8257    3.1885    0.0000 C   0  0  0  0  0  0  0  0  0  0  0  0
    7.0824    2.8306    0.0000 N   0  0  0  0  0  0  0  0  0  0  0  0
    6.3391    3.1885    0.0000 C   0  0  0  0  0  0  0  0  0  0  0  0
    6.1555    3.9928    0.0000 C   0  0  0  0  0  0  0  0  0  0  0  0
    6.6699    4.6378    0.0000 N   0  0  0  0  0  0  0  0  0  0  0  0
    5.3672    4.2360    0.0000 C   0  0  0  0  0  0  0  0  0  0  0  0
    4.7624    3.6749    0.0000 C   0  0  0  0  0  0  0  0  0  0  0  0
    4.9460    2.8706    0.0000 C   0  0  0  0  0  0  0  0  0  0  0  0
    5.7343    2.6274    0.0000 C   0  0  0  0  0  0  0  0  0  0  0  0
    3.9741    3.9180    0.0000 Cl  0  0  0  0  0  0  0  0  0  0  0  0
  1  2  1  0  0  0  0
  2  3  1  0  0  0  0
  3  4  1  0  0  0  0
  4  5  1  0  0  0  0
  5  6  1  0  0  0  0
  6  7  1  0  0  0  0
  2  7  1  0  0  0  0
  5  8  1  0  0  0  0
  8  9  2  0  0  0  0
  9 10  1  0  0  0  0
 10 11  2  0  0  0  0
 11 12  1  0  0  0  0
 12 13  2  0  0  0  0
 13 14  1  0  0  0  0
  9 14  1  0  0  0  0
 14 15  2  0  0  0  0
 15 16  1  0  0  0  0
 16 17  4  0  0  0  0
 17 18  1  0  0  0  0
  8 18  1  0  0  0  0
 17 19  4  0  0  0  0
 19 20  4  0  0  0  0
 20 21  4  0  0  0  0
 21 22  4  0  0  0  0
 16 22  4  0  0  0  0
 20 23  1  0  0  0  0
M  END
>  <MOL_ID>
11
>  <Name_of_compounds>
Clozapine
>  <Activity_Profiles>
1 1 1 1 1
>  <INITIAL_ID>
111

>  <SUM_activity>
5

$$$$

  Marvin  08130811232D          

 31 34  0  0  0  0            999 V2000
   -2.5830   10.4184    0.0000 C   0  0  0  0  0  0  0  0  0  0  0  0
   -1.7760   10.2469    0.0000 C   0  0  0  0  0  0  0  0  0  0  0  0
   -1.2240   10.8599    0.0000 O   0  0  0  0  0  0  0  0  0  0  0  0
   -1.5211    9.4622    0.0000 C   0  0  0  0  0  0  0  0  0  0  0  0
   -0.7141    9.2907    0.0000 C   0  0  0  0  0  0  0  0  0  0  0  0
   -0.4592    8.5061    0.0000 C   0  0  0  0  0  0  0  0  0  0  0  0
   -1.0112    7.8930    0.0000 C   0  0  0  0  0  0  0  0  0  0  0  0
   -1.8182    8.0645    0.0000 C   0  0  0  0  0  0  0  0  0  0  0  0
   -2.0731    8.8491    0.0000 C   0  0  0  0  0  0  0  0  0  0  0  0
   -0.7563    7.1084    0.0000 O   0  0  0  0  0  0  0  0  0  0  0  0
    0.0507    6.9368    0.0000 C   0  0  0  0  0  0  0  0  0  0  0  0
    0.3056    6.1522    0.0000 C   0  0  0  0  0  0  0  0  0  0  0  0
    1.1126    5.9807    0.0000 C   0  0  0  0  0  0  0  0  0  0  0  0
    1.3676    5.1961    0.0000 N   0  0  0  0  0  0  0  0  0  0  0  0
    2.1745    5.0245    0.0000 C   0  0  0  0  0  0  0  0  0  0  0  0
    2.4295    4.2399    0.0000 C   0  0  0  0  0  0  0  0  0  0  0  0
    1.8774    3.6268    0.0000 C   0  0  0  0  0  0  0  0  0  0  0  0
    1.0705    3.7984    0.0000 C   0  0  0  0  0  0  0  0  0  0  0  0
    0.8155    4.5830    0.0000 C   0  0  0  0  0  0  0  0  0  0  0  0
    2.1324    2.8422    0.0000 C   0  0  0  0  0  0  0  0  0  0  0  0
    1.6475    2.1748    0.0000 N   0  0  0  0  0  0  0  0  0  0  0  0
    2.1324    1.5073    0.0000 O   0  0  0  0  0  0  0  0  0  0  0  0
    2.9170    1.7623    0.0000 C   0  0  0  0  0  0  0  0  0  0  0  0
    2.9170    2.5873    0.0000 C   0  0  0  0  0  0  0  0  0  0  0  0
    3.6315    2.9998    0.0000 C   0  0  0  0  0  0  0  0  0  0  0  0
    4.3459    2.5873    0.0000 C   0  0  0  0  0  0  0  0  0  0  0  0
    4.3459    1.7623    0.0000 C   0  0  0  0  0  0  0  0  0  0  0  0
    3.6315    1.3498    0.0000 C   0  0  0  0  0  0  0  0  0  0  0  0
    5.0604    1.3498    0.0000 F   0  0  0  0  0  0  0  0  0  0  0  0
    0.3478    8.3346    0.0000 O   0  0  0  0  0  0  0  0  0  0  0  0
    0.6027    7.5499    0.0000 C   0  0  0  0  0  0  0  0  0  0  0  0
  1  2  1  0  0  0  0
  2  3  2  0  0  0  0
  2  4  1  0  0  0  0
  4  5  4  0  0  0  0
  5  6  4  0  0  0  0
  6  7  4  0  0  0  0
  7  8  4  0  0  0  0
  8  9  4  0  0  0  0
  4  9  4  0  0  0  0
  7 10  1  0  0  0  0
 10 11  1  0  0  0  0
 11 12  1  0  0  0  0
 12 13  1  0  0  0  0
 13 14  1  0  0  0  0
 14 15  1  0  0  0  0
 15 16  1  0  0  0  0
 16 17  1  0  0  0  0
 17 18  1  0  0  0  0
 18 19  1  0  0  0  0
 14 19  1  0  0  0  0
 17 20  1  0  0  0  0
 20 21  4  0  0  0  0
 21 22  4  0  0  0  0
 22 23  4  0  0  0  0
 23 24  4  0  0  0  0
 20 24  4  0  0  0  0
 24 25  4  0  0  0  0
 25 26  4  0  0  0  0
 26 27  4  0  0  0  0
 27 28  4  0  0  0  0
 23 28  4  0  0  0  0
 27 29  1  0  0  0  0
  6 30  1  0  0  0  0
 30 31  1  0  0  0  0
M  END
>  <MOL_ID>
13
>  <Name_of_compounds>
Iloperidone
>  <Activity_Profiles>
1 1 1 1 1
>  <INITIAL_ID>
113

>  <SUM_activity>
5

$$$$

  Marvin  08130811232D          

 28 32  0  0  0  0            999 V2000
   -5.6966  -12.9881    0.0000 O   0  0  0  0  0  0  0  0  0  0  0  0
   -5.0835  -12.4360    0.0000 C   0  0  0  0  0  0  0  0  0  0  0  0
   -5.1698  -11.6155    0.0000 C   0  0  0  0  0  0  0  0  0  0  0  0
   -4.2766  -12.6075    0.0000 N   0  0  0  0  0  0  0  0  0  0  0  0
   -3.8641  -11.8931    0.0000 C   0  0  0  0  0  0  0  0  0  0  0  0
   -4.4161  -11.2800    0.0000 C   0  0  0  0  0  0  0  0  0  0  0  0
   -4.1612  -10.4954    0.0000 C   0  0  0  0  0  0  0  0  0  0  0  0
   -3.0571  -11.7215    0.0000 C   0  0  0  0  0  0  0  0  0  0  0  0
   -2.8022  -10.9369    0.0000 C   0  0  0  0  0  0  0  0  0  0  0  0
   -1.9952  -10.7654    0.0000 Cl  0  0  0  0  0  0  0  0  0  0  0  0
   -3.3542  -10.3238    0.0000 C   0  0  0  0  0  0  0  0  0  0  0  0
   -3.0993   -9.5392    0.0000 C   0  0  0  0  0  0  0  0  0  0  0  0
   -3.6513   -8.9261    0.0000 C   0  0  0  0  0  0  0  0  0  0  0  0
   -3.3964   -8.1415    0.0000 N   0  0  0  0  0  0  0  0  0  0  0  0
   -3.9484   -7.5284    0.0000 C   0  0  0  0  0  0  0  0  0  0  0  0
   -3.6934   -6.7438    0.0000 C   0  0  0  0  0  0  0  0  0  0  0  0
   -2.5894   -7.9700    0.0000 C   0  0  0  0  0  0  0  0  0  0  0  0
   -2.3344   -7.1853    0.0000 C   0  0  0  0  0  0  0  0  0  0  0  0
   -2.8865   -6.5723    0.0000 N   0  0  0  0  0  0  0  0  0  0  0  0
   -2.6315   -5.7876    0.0000 C   0  0  0  0  0  0  0  0  0  0  0  0
   -3.1165   -5.1202    0.0000 N   0  0  0  0  0  0  0  0  0  0  0  0
   -2.6315   -4.4528    0.0000 S   0  0  0  0  0  0  0  0  0  0  0  0
   -1.8469   -4.7077    0.0000 C   0  0  0  0  0  0  0  0  0  0  0  0
   -1.1324   -4.2952    0.0000 C   0  0  0  0  0  0  0  0  0  0  0  0
   -0.4180   -4.7077    0.0000 C   0  0  0  0  0  0  0  0  0  0  0  0
   -0.4180   -5.5327    0.0000 C   0  0  0  0  0  0  0  0  0  0  0  0
   -1.1324   -5.9452    0.0000 C   0  0  0  0  0  0  0  0  0  0  0  0
   -1.8469   -5.5327    0.0000 C   0  0  0  0  0  0  0  0  0  0  0  0
  1  2  2  0  0  0  0
  2  3  1  0  0  0  0
  2  4  1  0  0  0  0
  4  5  1  0  0  0  0
  5  6  4  0  0  0  0
  3  6  1  0  0  0  0
  6  7  4  0  0  0  0
  5  8  4  0  0  0  0
  8  9  4  0  0  0  0
  9 10  1  0  0  0  0
  9 11  4  0  0  0  0
  7 11  4  0  0  0  0
 11 12  1  0  0  0  0
 12 13  1  0  0  0  0
 13 14  1  0  0  0  0
 14 15  1  0  0  0  0
 15 16  1  0  0  0  0
 14 17  1  0  0  0  0
 17 18  1  0  0  0  0
 18 19  1  0  0  0  0
 16 19  1  0  0  0  0
 19 20  1  0  0  0  0
 20 21  4  0  0  0  0
 21 22  4  0  0  0  0
 22 23  4  0  0  0  0
 23 24  4  0  0  0  0
 24 25  4  0  0  0  0
 25 26  4  0  0  0  0
 26 27  4  0  0  0  0
 27 28  4  0  0  0  0
 23 28  4  0  0  0  0
 20 28  4  0  0  0  0
M  END
>  <MOL_ID>
20
>  <Name_of_compounds>
Ziprasidone
>  <Activity_Profiles>
1 1 1 1 1
>  <INITIAL_ID>
120

>  <SUM_activity>
5

$$$$

  Marvin  08130811232D          

 31 35  0  0  0  0            999 V2000
   -0.4440    2.0184    0.0000 C   0  0  0  0  0  0  0  0  0  0  0  0
   -0.6989    2.8030    0.0000 C   0  0  0  0  0  0  0  0  0  0  0  0
   -0.1469    3.4161    0.0000 N   0  0  0  0  0  0  0  0  0  0  0  0
    0.6601    3.2446    0.0000 C   0  0  0  0  0  0  0  0  0  0  0  0
    0.9150    2.4600    0.0000 C   0  0  0  0  0  0  0  0  0  0  0  0
    0.3630    1.8469    0.0000 C   0  0  0  0  0  0  0  0  0  0  0  0
    0.6179    1.0622    0.0000 C   0  0  0  0  0  0  0  0  0  0  0  0
    0.1330    0.3948    0.0000 C   0  0  0  0  0  0  0  0  0  0  0  0
    0.6179   -0.2726    0.0000 N   0  0  0  0  0  0  0  0  0  0  0  0
    1.4025   -0.0177    0.0000 C   0  0  0  0  0  0  0  0  0  0  0  0
    1.4025    0.8073    0.0000 C   0  0  0  0  0  0  0  0  0  0  0  0
    2.1170    1.2198    0.0000 C   0  0  0  0  0  0  0  0  0  0  0  0
    2.8315    0.8073    0.0000 C   0  0  0  0  0  0  0  0  0  0  0  0
    2.8315   -0.0177    0.0000 C   0  0  0  0  0  0  0  0  0  0  0  0
    2.1170   -0.4302    0.0000 C   0  0  0  0  0  0  0  0  0  0  0  0
    3.5460    1.2198    0.0000 Cl  0  0  0  0  0  0  0  0  0  0  0  0
    0.3630   -1.0573    0.0000 C   0  0  0  0  0  0  0  0  0  0  0  0
    0.9150   -1.6703    0.0000 C   0  0  0  0  0  0  0  0  0  0  0  0
    0.6601   -2.4550    0.0000 C   0  0  0  0  0  0  0  0  0  0  0  0
   -0.1469   -2.6265    0.0000 C   0  0  0  0  0  0  0  0  0  0  0  0
   -0.6989   -2.0134    0.0000 C   0  0  0  0  0  0  0  0  0  0  0  0
   -0.4440   -1.2288    0.0000 C   0  0  0  0  0  0  0  0  0  0  0  0
   -0.4018   -3.4111    0.0000 F   0  0  0  0  0  0  0  0  0  0  0  0
   -0.4018    4.2007    0.0000 C   0  0  0  0  0  0  0  0  0  0  0  0
   -1.2088    4.3723    0.0000 C   0  0  0  0  0  0  0  0  0  0  0  0
   -1.4637    5.1569    0.0000 N   0  0  0  0  0  0  0  0  0  0  0  0
   -2.2484    5.4118    0.0000 C   0  0  0  0  0  0  0  0  0  0  0  0
   -2.2484    6.2368    0.0000 C   0  0  0  0  0  0  0  0  0  0  0  0
   -1.4637    6.4918    0.0000 N   0  0  0  0  0  0  0  0  0  0  0  0
   -0.9788    5.8243    0.0000 C   0  0  0  0  0  0  0  0  0  0  0  0
   -0.1538    5.8243    0.0000 O   0  0  0  0  0  0  0  0  0  0  0  0
  1  2  1  0  0  0  0
  2  3  1  0  0  0  0
  3  4  1  0  0  0  0
  4  5  1  0  0  0  0
  5  6  1  0  0  0  0
  1  6  1  0  0  0  0
  6  7  1  0  0  0  0
  7  8  4  0  0  0  0
  8  9  4  0  0  0  0
  9 10  4  0  0  0  0
 10 11  4  0  0  0  0
  7 11  4  0  0  0  0
 11 12  4  0  0  0  0
 12 13  4  0  0  0  0
 13 14  4  0  0  0  0
 14 15  4  0  0  0  0
 10 15  4  0  0  0  0
 13 16  1  0  0  0  0
  9 17  1  0  0  0  0
 17 18  4  0  0  0  0
 18 19  4  0  0  0  0
 19 20  4  0  0  0  0
 20 21  4  0  0  0  0
 21 22  4  0  0  0  0
 17 22  4  0  0  0  0
 20 23  1  0  0  0  0
  3 24  1  0  0  0  0
 24 25  1  0  0  0  0
 25 26  1  0  0  0  0
 26 27  1  0  0  0  0
 27 28  1  0  0  0  0
 28 29  1  0  0  0  0
 29 30  1  0  0  0  0
 26 30  1  0  0  0  0
 30 31  2  0  0  0  0
M  END
>  <MOL_ID>
19
>  <Name_of_compounds>
Sertindole
>  <Activity_Profiles>
1 1 1 1 1
>  <INITIAL_ID>
119

>  <SUM_activity>
5

$$$$

  Marvin  08130811232D          

 22 24  0  0  0  0            999 V2000
    1.2624   -5.9047    0.0000 C   0  0  0  0  0  0  0  0  0  0  0  0
    1.9769   -6.3172    0.0000 N   0  0  0  0  0  0  0  0  0  0  0  0
    1.9769   -7.1422    0.0000 C   0  0  0  0  0  0  0  0  0  0  0  0
    2.6914   -5.9047    0.0000 C   0  0  0  0  0  0  0  0  0  0  0  0
    3.4058   -6.3172    0.0000 C   0  0  0  0  0  0  0  0  0  0  0  0
    4.1203   -5.9047    0.0000 O   0  0  0  0  0  0  0  0  0  0  0  0
    4.8348   -6.3172    0.0000 C   0  0  0  0  0  0  0  0  0  0  0  0
    5.5164   -5.8525    0.0000 C   0  0  0  0  0  0  0  0  0  0  0  0
    6.3048   -6.0957    0.0000 C   0  0  0  0  0  0  0  0  0  0  0  0
    6.8191   -5.4507    0.0000 C   0  0  0  0  0  0  0  0  0  0  0  0
    7.6349   -5.5736    0.0000 C   0  0  0  0  0  0  0  0  0  0  0  0
    7.9363   -6.3416    0.0000 C   0  0  0  0  0  0  0  0  0  0  0  0
    7.4220   -6.9866    0.0000 C   0  0  0  0  0  0  0  0  0  0  0  0
    6.6062   -6.8637    0.0000 C   0  0  0  0  0  0  0  0  0  0  0  0
    6.1937   -7.5781    0.0000 S   0  0  0  0  0  0  0  0  0  0  0  0
    5.3779   -7.7011    0.0000 C   0  0  0  0  0  0  0  0  0  0  0  0
    5.1943   -8.5054    0.0000 C   0  0  0  0  0  0  0  0  0  0  0  0
    4.4060   -8.7486    0.0000 C   0  0  0  0  0  0  0  0  0  0  0  0
    3.8012   -8.1874    0.0000 C   0  0  0  0  0  0  0  0  0  0  0  0
    3.0128   -8.4306    0.0000 Cl  0  0  0  0  0  0  0  0  0  0  0  0
    3.9848   -7.3831    0.0000 C   0  0  0  0  0  0  0  0  0  0  0  0
    4.7731   -7.1399    0.0000 C   0  0  0  0  0  0  0  0  0  0  0  0
  1  2  1  0  0  0  0
  2  3  1  0  0  0  0
  2  4  1  0  0  0  0
  4  5  1  0  0  0  0
  5  6  1  0  0  0  0
  6  7  1  0  0  0  0
  7  8  2  0  0  0  0
  8  9  1  0  0  0  0
  9 10  4  0  0  0  0
 10 11  4  0  0  0  0
 11 12  4  0  0  0  0
 12 13  4  0  0  0  0
 13 14  4  0  0  0  0
  9 14  4  0  0  0  0
 14 15  1  0  0  0  0
 15 16  1  0  0  0  0
 16 17  4  0  0  0  0
 17 18  4  0  0  0  0
 18 19  4  0  0  0  0
 19 20  1  0  0  0  0
 19 21  4  0  0  0  0
 21 22  4  0  0  0  0
  7 22  1  0  0  0  0
 16 22  4  0  0  0  0
M  END
>  <MOL_ID>
21
>  <Name_of_compounds>
Zotepine
>  <Activity_Profiles>
1 1 1 1 1
>  <INITIAL_ID>
121

>  <SUM_activity>
5

$$$$

  Marvin  08130811232D          

 27 30  0  0  0  0            999 V2000
    4.9291  -13.5143    0.0000 O   0  0  0  0  0  0  0  0  0  0  0  0
    5.6435  -13.1018    0.0000 C   0  0  0  0  0  0  0  0  0  0  0  0
    6.3580  -13.5143    0.0000 C   0  0  0  0  0  0  0  0  0  0  0  0
    7.0725  -13.1018    0.0000 O   0  0  0  0  0  0  0  0  0  0  0  0
    7.7870  -13.5143    0.0000 C   0  0  0  0  0  0  0  0  0  0  0  0
    8.5014  -13.1018    0.0000 C   0  0  0  0  0  0  0  0  0  0  0  0
    9.2159  -13.5143    0.0000 N   0  0  0  0  0  0  0  0  0  0  0  0
    9.9304  -13.1018    0.0000 C   0  0  0  0  0  0  0  0  0  0  0  0
   10.6448  -13.5143    0.0000 C   0  0  0  0  0  0  0  0  0  0  0  0
    9.2159  -14.3393    0.0000 C   0  0  0  0  0  0  0  0  0  0  0  0
    9.9304  -14.7518    0.0000 C   0  0  0  0  0  0  0  0  0  0  0  0
   10.6448  -14.3393    0.0000 N   0  0  0  0  0  0  0  0  0  0  0  0
   11.3593  -14.7518    0.0000 C   0  0  0  0  0  0  0  0  0  0  0  0
   12.0410  -14.2871    0.0000 N   0  0  0  0  0  0  0  0  0  0  0  0
   12.8293  -14.5303    0.0000 C   0  0  0  0  0  0  0  0  0  0  0  0
   13.3437  -13.8853    0.0000 C   0  0  0  0  0  0  0  0  0  0  0  0
   14.1595  -14.0082    0.0000 C   0  0  0  0  0  0  0  0  0  0  0  0
   14.4609  -14.7762    0.0000 C   0  0  0  0  0  0  0  0  0  0  0  0
   13.9465  -15.4212    0.0000 C   0  0  0  0  0  0  0  0  0  0  0  0
   13.1307  -15.2982    0.0000 C   0  0  0  0  0  0  0  0  0  0  0  0
   12.7182  -16.0127    0.0000 S   0  0  0  0  0  0  0  0  0  0  0  0
   11.9024  -16.1357    0.0000 C   0  0  0  0  0  0  0  0  0  0  0  0
   11.2977  -15.5745    0.0000 C   0  0  0  0  0  0  0  0  0  0  0  0
   10.5093  -15.8177    0.0000 C   0  0  0  0  0  0  0  0  0  0  0  0
   10.3257  -16.6220    0.0000 C   0  0  0  0  0  0  0  0  0  0  0  0
   10.9305  -17.1832    0.0000 C   0  0  0  0  0  0  0  0  0  0  0  0
   11.7189  -16.9400    0.0000 C   0  0  0  0  0  0  0  0  0  0  0  0
  1  2  1  0  0  0  0
  2  3  1  0  0  0  0
  3  4  1  0  0  0  0
  4  5  1  0  0  0  0
  5  6  1  0  0  0  0
  6  7  1  0  0  0  0
  7  8  1  0  0  0  0
  8  9  1  0  0  0  0
  7 10  1  0  0  0  0
 10 11  1  0  0  0  0
 11 12  1  0  0  0  0
  9 12  1  0  0  0  0
 12 13  1  0  0  0  0
 13 14  2  0  0  0  0
 14 15  1  0  0  0  0
 15 16  4  0  0  0  0
 16 17  4  0  0  0  0
 17 18  4  0  0  0  0
 18 19  4  0  0  0  0
 15 20  4  0  0  0  0
 19 20  4  0  0  0  0
 20 21  1  0  0  0  0
 21 22  1  0  0  0  0
 22 23  4  0  0  0  0
 13 23  1  0  0  0  0
 23 24  4  0  0  0  0
 24 25  4  0  0  0  0
 25 26  4  0  0  0  0
 26 27  4  0  0  0  0
 22 27  4  0  0  0  0
M  END
>  <MOL_ID>
17
>  <Name_of_compounds>
Quetiapine
>  <Activity_Profiles>
1 1 1 1 1
>  <INITIAL_ID>
117

>  <SUM_activity>
5

$$$$

  Marvin  08130811232D          

 30 34  0  0  0  0            999 V2000
    0.2201   -1.8869    0.0000 C   0  0  0  0  0  0  0  0  0  0  0  0
   -0.5869   -1.7153    0.0000 C   0  0  0  0  0  0  0  0  0  0  0  0
   -1.1389   -2.3284    0.0000 C   0  0  0  0  0  0  0  0  0  0  0  0
   -1.9459   -2.1569    0.0000 C   0  0  0  0  0  0  0  0  0  0  0  0
   -2.4979   -2.7700    0.0000 O   0  0  0  0  0  0  0  0  0  0  0  0
   -2.2008   -1.3723    0.0000 N   0  0  0  0  0  0  0  0  0  0  0  0
   -3.0078   -1.2008    0.0000 C   0  0  0  0  0  0  0  0  0  0  0  0
   -3.2627   -0.4161    0.0000 C   0  0  0  0  0  0  0  0  0  0  0  0
   -2.7107    0.1970    0.0000 C   0  0  0  0  0  0  0  0  0  0  0  0
   -1.9037    0.0254    0.0000 C   0  0  0  0  0  0  0  0  0  0  0  0
   -1.6488   -0.7592    0.0000 C   0  0  0  0  0  0  0  0  0  0  0  0
   -0.8418   -0.9307    0.0000 N   0  0  0  0  0  0  0  0  0  0  0  0
   -0.8839   -3.1130    0.0000 C   0  0  0  0  0  0  0  0  0  0  0  0
   -0.0770   -3.2846    0.0000 C   0  0  0  0  0  0  0  0  0  0  0  0
    0.1780   -4.0692    0.0000 N   0  0  0  0  0  0  0  0  0  0  0  0
    0.9849   -4.2407    0.0000 C   0  0  0  0  0  0  0  0  0  0  0  0
    1.2399   -5.0253    0.0000 C   0  0  0  0  0  0  0  0  0  0  0  0
    0.6878   -5.6384    0.0000 C   0  0  0  0  0  0  0  0  0  0  0  0
   -0.1191   -5.4669    0.0000 C   0  0  0  0  0  0  0  0  0  0  0  0
   -0.3741   -4.6823    0.0000 C   0  0  0  0  0  0  0  0  0  0  0  0
    0.9428   -6.4231    0.0000 C   0  0  0  0  0  0  0  0  0  0  0  0
    0.4579   -7.0905    0.0000 N   0  0  0  0  0  0  0  0  0  0  0  0
    0.9428   -7.7579    0.0000 O   0  0  0  0  0  0  0  0  0  0  0  0
    1.7274   -7.5030    0.0000 C   0  0  0  0  0  0  0  0  0  0  0  0
    1.7274   -6.6780    0.0000 C   0  0  0  0  0  0  0  0  0  0  0  0
    2.4419   -6.2655    0.0000 C   0  0  0  0  0  0  0  0  0  0  0  0
    3.1563   -6.6780    0.0000 C   0  0  0  0  0  0  0  0  0  0  0  0
    3.1563   -7.5030    0.0000 C   0  0  0  0  0  0  0  0  0  0  0  0
    2.4419   -7.9155    0.0000 C   0  0  0  0  0  0  0  0  0  0  0  0
    3.8708   -7.9155    0.0000 F   0  0  0  0  0  0  0  0  0  0  0  0
  1  2  1  0  0  0  0
  2  3  2  0  0  0  0
  3  4  1  0  0  0  0
  4  5  2  0  0  0  0
  4  6  1  0  0  0  0
  6  7  1  0  0  0  0
  7  8  1  0  0  0  0
  8  9  1  0  0  0  0
  9 10  1  0  0  0  0
 10 11  1  0  0  0  0
  6 11  1  0  0  0  0
 11 12  2  0  0  0  0
  2 12  1  0  0  0  0
  3 13  1  0  0  0  0
 13 14  1  0  0  0  0
 14 15  1  0  0  0  0
 15 16  1  0  0  0  0
 16 17  1  0  0  0  0
 17 18  1  0  0  0  0
 18 19  1  0  0  0  0
 19 20  1  0  0  0  0
 15 20  1  0  0  0  0
 18 21  1  0  0  0  0
 21 22  4  0  0  0  0
 22 23  4  0  0  0  0
 23 24  4  0  0  0  0
 24 25  4  0  0  0  0
 21 25  4  0  0  0  0
 25 26  4  0  0  0  0
 26 27  4  0  0  0  0
 27 28  4  0  0  0  0
 28 29  4  0  0  0  0
 24 29  4  0  0  0  0
 28 30  1  0  0  0  0
M  END
>  <MOL_ID>
18
>  <Name_of_compounds>
Risperidone
>  <Activity_Profiles>
1 1 1 1 1
>  <INITIAL_ID>
118

>  <SUM_activity>
5

$$$$

  Marvin  08130811232D          

 23 26  0  0  0  0            999 V2000
    4.3939    5.0265    0.0000 C   0  0  0  0  0  0  0  0  0  0  0  0
    4.7518    4.2832    0.0000 N   0  0  0  0  0  0  0  0  0  0  0  0
    5.5745    4.2215    0.0000 C   0  0  0  0  0  0  0  0  0  0  0  0
    5.9325    3.4782    0.0000 C   0  0  0  0  0  0  0  0  0  0  0  0
    5.4677    2.7966    0.0000 N   0  0  0  0  0  0  0  0  0  0  0  0
    4.6450    2.8582    0.0000 C   0  0  0  0  0  0  0  0  0  0  0  0
    4.2871    3.6015    0.0000 C   0  0  0  0  0  0  0  0  0  0  0  0
    5.8257    2.0533    0.0000 C   0  0  0  0  0  0  0  0  0  0  0  0
    6.6507    2.0533    0.0000 N   0  0  0  0  0  0  0  0  0  0  0  0
    7.1650    1.4083    0.0000 C   0  0  0  0  0  0  0  0  0  0  0  0
    7.9534    1.6514    0.0000 C   0  0  0  0  0  0  0  0  0  0  0  0
    8.5582    1.0903    0.0000 C   0  0  0  0  0  0  0  0  0  0  0  0
    8.3746    0.2860    0.0000 C   0  0  0  0  0  0  0  0  0  0  0  0
    7.5862    0.0428    0.0000 C   0  0  0  0  0  0  0  0  0  0  0  0
    6.9815    0.6039    0.0000 C   0  0  0  0  0  0  0  0  0  0  0  0
    6.2382    0.2460    0.0000 O   0  0  0  0  0  0  0  0  0  0  0  0
    5.4949    0.6039    0.0000 C   0  0  0  0  0  0  0  0  0  0  0  0
    5.3113    1.4083    0.0000 C   0  0  0  0  0  0  0  0  0  0  0  0
    4.5229    1.6514    0.0000 C   0  0  0  0  0  0  0  0  0  0  0  0
    3.9182    1.0903    0.0000 C   0  0  0  0  0  0  0  0  0  0  0  0
    4.1018    0.2860    0.0000 C   0  0  0  0  0  0  0  0  0  0  0  0
    4.8901    0.0428    0.0000 C   0  0  0  0  0  0  0  0  0  0  0  0
    3.1298    1.3335    0.0000 Cl  0  0  0  0  0  0  0  0  0  0  0  0
  1  2  1  0  0  0  0
  2  3  1  0  0  0  0
  3  4  1  0  0  0  0
  4  5  1  0  0  0  0
  5  6  1  0  0  0  0
  6  7  1  0  0  0  0
  2  7  1  0  0  0  0
  5  8  1  0  0  0  0
  8  9  2  0  0  0  0
  9 10  1  0  0  0  0
 10 11  4  0  0  0  0
 11 12  4  0  0  0  0
 12 13  4  0  0  0  0
 13 14  4  0  0  0  0
 14 15  4  0  0  0  0
 10 15  4  0  0  0  0
 15 16  1  0  0  0  0
 16 17  1  0  0  0  0
 17 18  4  0  0  0  0
  8 18  1  0  0  0  0
 18 19  4  0  0  0  0
 19 20  4  0  0  0  0
 20 21  4  0  0  0  0
 21 22  4  0  0  0  0
 17 22  4  0  0  0  0
 20 23  1  0  0  0  0
M  END
>  <MOL_ID>
4
>  <Name_of_compounds>
Loxapine
>  <Activity_Profiles>
1 1 1 1 1
>  <INITIAL_ID>
102

>  <SUM_activity>
5

$$$$

  Marvin  08130811232D          

 26 28  0  0  0  0            999 V2000
   -2.0392   -0.1930    0.0000 C   0  0  0  0  0  0  0  0  0  0  0  0
   -1.3247   -0.6055    0.0000 C   0  0  0  0  0  0  0  0  0  0  0  0
   -1.3247   -1.4305    0.0000 N   0  0  0  0  0  0  0  0  0  0  0  0
   -2.0392   -1.8430    0.0000 C   0  0  0  0  0  0  0  0  0  0  0  0
   -2.7537   -1.4305    0.0000 C   0  0  0  0  0  0  0  0  0  0  0  0
   -2.7537   -0.6055    0.0000 C   0  0  0  0  0  0  0  0  0  0  0  0
   -3.5782   -0.5767    0.0000 C   0  0  0  0  0  0  0  0  0  0  0  0
   -4.0153   -1.2764    0.0000 C   0  0  0  0  0  0  0  0  0  0  0  0
   -4.8398   -1.2476    0.0000 C   0  0  0  0  0  0  0  0  0  0  0  0
   -5.2271   -0.5192    0.0000 C   0  0  0  0  0  0  0  0  0  0  0  0
   -4.7900    0.1805    0.0000 C   0  0  0  0  0  0  0  0  0  0  0  0
   -3.9655    0.1517    0.0000 C   0  0  0  0  0  0  0  0  0  0  0  0
   -6.0516   -0.4904    0.0000 Cl  0  0  0  0  0  0  0  0  0  0  0  0
   -3.1908    0.0941    0.0000 O   0  0  0  0  0  0  0  0  0  0  0  0
   -0.6102   -1.8430    0.0000 C   0  0  0  0  0  0  0  0  0  0  0  0
    0.1042   -1.4305    0.0000 C   0  0  0  0  0  0  0  0  0  0  0  0
    0.8187   -1.8430    0.0000 C   0  0  0  0  0  0  0  0  0  0  0  0
    1.5332   -1.4305    0.0000 C   0  0  0  0  0  0  0  0  0  0  0  0
    1.5332   -0.6055    0.0000 O   0  0  0  0  0  0  0  0  0  0  0  0
    2.2476   -1.8430    0.0000 C   0  0  0  0  0  0  0  0  0  0  0  0
    2.9621   -1.4305    0.0000 C   0  0  0  0  0  0  0  0  0  0  0  0
    3.6766   -1.8430    0.0000 C   0  0  0  0  0  0  0  0  0  0  0  0
    3.6766   -2.6680    0.0000 C   0  0  0  0  0  0  0  0  0  0  0  0
    2.9621   -3.0805    0.0000 C   0  0  0  0  0  0  0  0  0  0  0  0
    2.2476   -2.6680    0.0000 C   0  0  0  0  0  0  0  0  0  0  0  0
    4.3911   -3.0805    0.0000 F   0  0  0  0  0  0  0  0  0  0  0  0
  1  2  1  0  0  0  0
  2  3  1  0  0  0  0
  3  4  1  0  0  0  0
  4  5  1  0  0  0  0
  5  6  1  0  0  0  0
  1  6  1  0  0  0  0
  6  7  1  0  0  0  0
  7  8  4  0  0  0  0
  8  9  4  0  0  0  0
  9 10  4  0  0  0  0
 10 11  4  0  0  0  0
 11 12  4  0  0  0  0
  7 12  4  0  0  0  0
 10 13  1  0  0  0  0
  6 14  1  0  0  0  0
  3 15  1  0  0  0  0
 15 16  1  0  0  0  0
 16 17  1  0  0  0  0
 17 18  1  0  0  0  0
 18 19  2  0  0  0  0
 18 20  1  0  0  0  0
 20 21  4  0  0  0  0
 21 22  4  0  0  0  0
 22 23  4  0  0  0  0
 23 24  4  0  0  0  0
 24 25  4  0  0  0  0
 20 25  4  0  0  0  0
 23 26  1  0  0  0  0
M  END
>  <MOL_ID>
3
>  <Name_of_compounds>
Haloperidol
>  <Activity_Profiles>
1 1 1 1 1
>  <INITIAL_ID>
101

>  <SUM_activity>
5

$$$$

  Marvin  08130811232D          

 27 29  0  0  0  0            999 V2000
   -5.1144   -1.0124    0.0000 C   0  0  0  0  0  0  0  0  0  0  0  0
   -4.8322   -0.2372    0.0000 C   0  0  0  0  0  0  0  0  0  0  0  0
   -4.0197   -0.0939    0.0000 C   0  0  0  0  0  0  0  0  0  0  0  0
   -3.4894   -0.7259    0.0000 N   0  0  0  0  0  0  0  0  0  0  0  0
   -3.7716   -1.5012    0.0000 C   0  0  0  0  0  0  0  0  0  0  0  0
   -4.5841   -1.6444    0.0000 C   0  0  0  0  0  0  0  0  0  0  0  0
   -2.6770   -0.5826    0.0000 C   0  0  0  0  0  0  0  0  0  0  0  0
   -1.9625   -0.1701    0.0000 C   0  0  0  0  0  0  0  0  0  0  0  0
   -1.2480   -0.5826    0.0000 C   0  0  0  0  0  0  0  0  0  0  0  0
   -1.2480   -1.4076    0.0000 N   0  0  0  0  0  0  0  0  0  0  0  0
   -1.9625   -1.8201    0.0000 C   0  0  0  0  0  0  0  0  0  0  0  0
   -2.6770   -1.4076    0.0000 C   0  0  0  0  0  0  0  0  0  0  0  0
   -0.5336   -1.8201    0.0000 C   0  0  0  0  0  0  0  0  0  0  0  0
    0.1809   -1.4076    0.0000 C   0  0  0  0  0  0  0  0  0  0  0  0
    0.8954   -1.8201    0.0000 C   0  0  0  0  0  0  0  0  0  0  0  0
    1.6099   -1.4076    0.0000 C   0  0  0  0  0  0  0  0  0  0  0  0
    1.6099   -0.5826    0.0000 O   0  0  0  0  0  0  0  0  0  0  0  0
    2.3243   -1.8201    0.0000 C   0  0  0  0  0  0  0  0  0  0  0  0
    3.0388   -1.4076    0.0000 C   0  0  0  0  0  0  0  0  0  0  0  0
    3.7533   -1.8201    0.0000 C   0  0  0  0  0  0  0  0  0  0  0  0
    3.7533   -2.6451    0.0000 C   0  0  0  0  0  0  0  0  0  0  0  0
    3.0388   -3.0576    0.0000 C   0  0  0  0  0  0  0  0  0  0  0  0
    2.3243   -2.6451    0.0000 C   0  0  0  0  0  0  0  0  0  0  0  0
    4.4677   -3.0576    0.0000 F   0  0  0  0  0  0  0  0  0  0  0  0
   -2.9591    0.1926    0.0000 C   0  0  0  0  0  0  0  0  0  0  0  0
   -2.4288    0.8246    0.0000 O   0  0  0  0  0  0  0  0  0  0  0  0
   -3.7716    0.3359    0.0000 N   0  0  0  0  0  0  0  0  0  0  0  0
  1  2  1  0  0  0  0
  2  3  1  0  0  0  0
  3  4  1  0  0  0  0
  4  5  1  0  0  0  0
  5  6  1  0  0  0  0
  1  6  1  0  0  0  0
  4  7  1  0  0  0  0
  7  8  1  0  0  0  0
  8  9  1  0  0  0  0
  9 10  1  0  0  0  0
 10 11  1  0  0  0  0
 11 12  1  0  0  0  0
  7 12  1  0  0  0  0
 10 13  1  0  0  0  0
 13 14  1  0  0  0  0
 14 15  1  0  0  0  0
 15 16  1  0  0  0  0
 16 17  2  0  0  0  0
 16 18  1  0  0  0  0
 18 19  4  0  0  0  0
 19 20  4  0  0  0  0
 20 21  4  0  0  0  0
 21 22  4  0  0  0  0
 22 23  4  0  0  0  0
 18 23  4  0  0  0  0
 21 24  1  0  0  0  0
  7 25  1  0  0  0  0
 25 26  2  0  0  0  0
 25 27  1  0  0  0  0
M  END
>  <MOL_ID>
5
>  <Name_of_compounds>
Pipamperone
>  <Activity_Profiles>
1 1 1 1 1
>  <INITIAL_ID>
105

>  <SUM_activity>
5

$$$$

  Marvin  08130811232D          

 21 23  0  0  0  0            999 V2000
   -4.2868   -0.0000    0.0000 C   0  0  0  0  0  0  0  0  0  0  0  0
   -3.5724   -0.4125    0.0000 N   0  0  0  0  0  0  0  0  0  0  0  0
   -3.5724   -1.2375    0.0000 C   0  0  0  0  0  0  0  0  0  0  0  0
   -2.8579   -0.0000    0.0000 C   0  0  0  0  0  0  0  0  0  0  0  0
   -2.1434   -0.4125    0.0000 C   0  0  0  0  0  0  0  0  0  0  0  0
   -1.4289   -0.0000    0.0000 C   0  0  0  0  0  0  0  0  0  0  0  0
   -0.7145   -0.4125    0.0000 N   0  0  0  0  0  0  0  0  0  0  0  0
   -0.7145   -1.2375    0.0000 C   0  0  0  0  0  0  0  0  0  0  0  0
   -1.4289   -1.6500    0.0000 C   0  0  0  0  0  0  0  0  0  0  0  0
   -1.4289   -2.4750    0.0000 C   0  0  0  0  0  0  0  0  0  0  0  0
   -0.7145   -2.8875    0.0000 C   0  0  0  0  0  0  0  0  0  0  0  0
    0.0000   -2.4750    0.0000 C   0  0  0  0  0  0  0  0  0  0  0  0
    0.0000   -1.6500    0.0000 C   0  0  0  0  0  0  0  0  0  0  0  0
    0.7145   -1.2375    0.0000 S   0  0  0  0  0  0  0  0  0  0  0  0
    0.7145   -0.4125    0.0000 C   0  0  0  0  0  0  0  0  0  0  0  0
    0.0000   -0.0000    0.0000 C   0  0  0  0  0  0  0  0  0  0  0  0
    0.0000    0.8250    0.0000 C   0  0  0  0  0  0  0  0  0  0  0  0
    0.7145    1.2375    0.0000 C   0  0  0  0  0  0  0  0  0  0  0  0
    1.4289    0.8250    0.0000 C   0  0  0  0  0  0  0  0  0  0  0  0
    1.4289   -0.0000    0.0000 C   0  0  0  0  0  0  0  0  0  0  0  0
    0.7145    2.0625    0.0000 Cl  0  0  0  0  0  0  0  0  0  0  0  0
  1  2  1  0  0  0  0
  2  3  1  0  0  0  0
  2  4  1  0  0  0  0
  4  5  1  0  0  0  0
  5  6  1  0  0  0  0
  6  7  1  0  0  0  0
  7  8  1  0  0  0  0
  8  9  4  0  0  0  0
  9 10  4  0  0  0  0
 10 11  4  0  0  0  0
 11 12  4  0  0  0  0
 12 13  4  0  0  0  0
  8 13  4  0  0  0  0
 13 14  1  0  0  0  0
 14 15  1  0  0  0  0
 15 16  4  0  0  0  0
  7 16  1  0  0  0  0
 16 17  4  0  0  0  0
 17 18  4  0  0  0  0
 18 19  4  0  0  0  0
 19 20  4  0  0  0  0
 15 20  4  0  0  0  0
 18 21  1  0  0  0  0
M  END
>  <MOL_ID>
1
>  <Name_of_compounds>
Chlorpromazine
>  <Activity_Profiles>
1 1 1 1 1
>  <INITIAL_ID>
98

>  <SUM_activity>
5

$$$$

  Marvin  08130811232D          

 30 33  0  0  0  0            999 V2000
    8.5022   -3.0938    0.0000 C   0  0  0  0  0  0  0  0  0  0  0  0
    9.2167   -3.5063    0.0000 C   0  0  0  0  0  0  0  0  0  0  0  0
    9.2167   -4.3313    0.0000 N   0  0  0  0  0  0  0  0  0  0  0  0
    8.5022   -4.7438    0.0000 C   0  0  0  0  0  0  0  0  0  0  0  0
    7.7877   -4.3313    0.0000 C   0  0  0  0  0  0  0  0  0  0  0  0
    7.7877   -3.5063    0.0000 N   0  0  0  0  0  0  0  0  0  0  0  0
    7.0733   -3.0938    0.0000 C   0  0  0  0  0  0  0  0  0  0  0  0
    7.0733   -2.2688    0.0000 C   0  0  0  0  0  0  0  0  0  0  0  0
    6.3588   -1.8563    0.0000 C   0  0  0  0  0  0  0  0  0  0  0  0
    6.3588   -1.0312    0.0000 N   0  0  0  0  0  0  0  0  0  0  0  0
    7.0733   -0.6187    0.0000 C   0  0  0  0  0  0  0  0  0  0  0  0
    7.7877   -1.0312    0.0000 C   0  0  0  0  0  0  0  0  0  0  0  0
    8.5022   -0.6187    0.0000 C   0  0  0  0  0  0  0  0  0  0  0  0
    8.5022    0.2063    0.0000 C   0  0  0  0  0  0  0  0  0  0  0  0
    7.7877    0.6188    0.0000 C   0  0  0  0  0  0  0  0  0  0  0  0
    7.0733    0.2063    0.0000 C   0  0  0  0  0  0  0  0  0  0  0  0
    6.3588    0.6188    0.0000 S   0  0  0  0  0  0  0  0  0  0  0  0
    5.6443    0.2063    0.0000 C   0  0  0  0  0  0  0  0  0  0  0  0
    5.6443   -0.6187    0.0000 C   0  0  0  0  0  0  0  0  0  0  0  0
    4.9299   -1.0312    0.0000 C   0  0  0  0  0  0  0  0  0  0  0  0
    4.2154   -0.6187    0.0000 C   0  0  0  0  0  0  0  0  0  0  0  0
    4.2154    0.2063    0.0000 C   0  0  0  0  0  0  0  0  0  0  0  0
    4.9299    0.6188    0.0000 C   0  0  0  0  0  0  0  0  0  0  0  0
    3.5009   -1.0312    0.0000 C   0  0  0  0  0  0  0  0  0  0  0  0
    3.0884   -0.3168    0.0000 F   0  0  0  0  0  0  0  0  0  0  0  0
    2.7864   -1.4437    0.0000 F   0  0  0  0  0  0  0  0  0  0  0  0
    3.9134   -1.7457    0.0000 F   0  0  0  0  0  0  0  0  0  0  0  0
    9.9311   -4.7438    0.0000 C   0  0  0  0  0  0  0  0  0  0  0  0
   10.6456   -4.3313    0.0000 C   0  0  0  0  0  0  0  0  0  0  0  0
   11.3601   -4.7438    0.0000 O   0  0  0  0  0  0  0  0  0  0  0  0
  1  2  1  0  0  0  0
  2  3  1  0  0  0  0
  3  4  1  0  0  0  0
  4  5  1  0  0  0  0
  5  6  1  0  0  0  0
  1  6  1  0  0  0  0
  6  7  1  0  0  0  0
  7  8  1  0  0  0  0
  8  9  1  0  0  0  0
  9 10  1  0  0  0  0
 10 11  1  0  0  0  0
 11 12  4  0  0  0  0
 12 13  4  0  0  0  0
 13 14  4  0  0  0  0
 14 15  4  0  0  0  0
 15 16  4  0  0  0  0
 11 16  4  0  0  0  0
 16 17  1  0  0  0  0
 17 18  1  0  0  0  0
 18 19  4  0  0  0  0
 10 19  1  0  0  0  0
 19 20  4  0  0  0  0
 20 21  4  0  0  0  0
 21 22  4  0  0  0  0
 22 23  4  0  0  0  0
 18 23  4  0  0  0  0
 21 24  1  0  0  0  0
 24 25  1  0  0  0  0
 24 26  1  0  0  0  0
 24 27  1  0  0  0  0
  3 28  1  0  0  0  0
 28 29  1  0  0  0  0
 29 30  1  0  0  0  0
M  END
>  <MOL_ID>
2
>  <Name_of_compounds>
Fluphenazine
>  <Activity_Profiles>
1 1 1 1 1
>  <INITIAL_ID>
100

>  <SUM_activity>
5

$$$$

  Marvin  08130811232D          

 30 33  0  0  0  0            999 V2000
    9.8167   -3.0002    0.0000 C   0  0  0  0  0  0  0  0  0  0  0  0
    9.1023   -2.5877    0.0000 N   0  0  0  0  0  0  0  0  0  0  0  0
    8.3878   -3.0002    0.0000 C   0  0  0  0  0  0  0  0  0  0  0  0
    7.6733   -2.5877    0.0000 C   0  0  0  0  0  0  0  0  0  0  0  0
    7.6733   -1.7627    0.0000 N   0  0  0  0  0  0  0  0  0  0  0  0
    8.3878   -1.3502    0.0000 C   0  0  0  0  0  0  0  0  0  0  0  0
    9.1023   -1.7627    0.0000 C   0  0  0  0  0  0  0  0  0  0  0  0
    6.9589   -1.3502    0.0000 C   0  0  0  0  0  0  0  0  0  0  0  0
    6.2444   -1.7627    0.0000 C   0  0  0  0  0  0  0  0  0  0  0  0
    5.5299   -1.3502    0.0000 C   0  0  0  0  0  0  0  0  0  0  0  0
    5.5299   -0.5252    0.0000 C   0  0  0  0  0  0  0  0  0  0  0  0
    6.2444   -0.1127    0.0000 C   0  0  0  0  0  0  0  0  0  0  0  0
    6.9589   -0.5252    0.0000 C   0  0  0  0  0  0  0  0  0  0  0  0
    7.6733   -0.1127    0.0000 C   0  0  0  0  0  0  0  0  0  0  0  0
    7.6733    0.7123    0.0000 C   0  0  0  0  0  0  0  0  0  0  0  0
    6.9589    1.1248    0.0000 C   0  0  0  0  0  0  0  0  0  0  0  0
    6.2444    0.7123    0.0000 C   0  0  0  0  0  0  0  0  0  0  0  0
    5.5299    1.1248    0.0000 S   0  0  0  0  0  0  0  0  0  0  0  0
    4.8154    0.7123    0.0000 C   0  0  0  0  0  0  0  0  0  0  0  0
    4.8154   -0.1127    0.0000 C   0  0  0  0  0  0  0  0  0  0  0  0
    4.1010   -0.5252    0.0000 C   0  0  0  0  0  0  0  0  0  0  0  0
    3.3865   -0.1127    0.0000 C   0  0  0  0  0  0  0  0  0  0  0  0
    3.3865    0.7123    0.0000 C   0  0  0  0  0  0  0  0  0  0  0  0
    4.1010    1.1248    0.0000 C   0  0  0  0  0  0  0  0  0  0  0  0
    2.6720   -0.5252    0.0000 S   0  0  0  0  0  0  0  0  0  0  0  0
    2.2595    0.1893    0.0000 O   0  0  0  0  0  0  0  0  0  0  0  0
    1.9576   -0.9377    0.0000 O   0  0  0  0  0  0  0  0  0  0  0  0
    3.0845   -1.2397    0.0000 N   0  0  0  0  0  0  0  0  0  0  0  0
    3.9095   -1.2397    0.0000 C   0  0  0  0  0  0  0  0  0  0  0  0
    2.6720   -1.9541    0.0000 C   0  0  0  0  0  0  0  0  0  0  0  0
  1  2  1  0  0  0  0
  2  3  1  0  0  0  0
  3  4  1  0  0  0  0
  4  5  1  0  0  0  0
  5  6  1  0  0  0  0
  6  7  1  0  0  0  0
  2  7  1  0  0  0  0
  5  8  1  0  0  0  0
  8  9  1  0  0  0  0
 10  9  1  4  0  0  0
 10 11  2  0  0  0  0
 11 12  1  0  0  0  0
 12 13  4  0  0  0  0
 13 14  4  0  0  0  0
 14 15  4  0  0  0  0
 15 16  4  0  0  0  0
 16 17  4  0  0  0  0
 12 17  4  0  0  0  0
 17 18  1  0  0  0  0
 18 19  1  0  0  0  0
 19 20  4  0  0  0  0
 11 20  1  0  0  0  0
 20 21  4  0  0  0  0
 21 22  4  0  0  0  0
 22 23  4  0  0  0  0
 23 24  4  0  0  0  0
 19 24  4  0  0  0  0
 22 25  1  0  0  0  0
 25 26  2  0  0  0  0
 25 27  2  0  0  0  0
 25 28  1  0  0  0  0
 28 29  1  0  0  0  0
 28 30  1  0  0  0  0
M  END
>  <MOL_ID>
9
>  <Name_of_compounds>
Thiothixene
>  <Activity_Profiles>
1 1 1 1 1
>  <INITIAL_ID>
109

>  <SUM_activity>
5

$$$$

  Marvin  08130811232D          

 29 31  0  0  0  0            999 V2000
   -3.9665   -0.8392    0.0000 C   0  0  0  0  0  0  0  0  0  0  0  0
   -3.2521   -0.4267    0.0000 C   0  0  0  0  0  0  0  0  0  0  0  0
   -2.5376   -0.8392    0.0000 N   0  0  0  0  0  0  0  0  0  0  0  0
   -1.8231   -0.4267    0.0000 C   0  0  0  0  0  0  0  0  0  0  0  0
   -1.8231    0.3983    0.0000 O   0  0  0  0  0  0  0  0  0  0  0  0
   -1.1087   -0.8392    0.0000 N   0  0  0  0  0  0  0  0  0  0  0  0
   -0.3942   -0.4267    0.0000 C   0  0  0  0  0  0  0  0  0  0  0  0
    0.3203   -0.8392    0.0000 C   0  0  0  0  0  0  0  0  0  0  0  0
    0.3203   -1.6642    0.0000 N   0  0  0  0  0  0  0  0  0  0  0  0
   -0.3942   -2.0767    0.0000 C   0  0  0  0  0  0  0  0  0  0  0  0
   -1.1087   -1.6642    0.0000 C   0  0  0  0  0  0  0  0  0  0  0  0
    1.0348   -2.0767    0.0000 C   0  0  0  0  0  0  0  0  0  0  0  0
    1.7492   -1.6642    0.0000 C   0  0  0  0  0  0  0  0  0  0  0  0
    2.4637   -2.0767    0.0000 C   0  0  0  0  0  0  0  0  0  0  0  0
    3.1782   -1.6642    0.0000 C   0  0  0  0  0  0  0  0  0  0  0  0
    3.1782   -0.8392    0.0000 C   0  0  0  0  0  0  0  0  0  0  0  0
    2.4637   -0.4267    0.0000 C   0  0  0  0  0  0  0  0  0  0  0  0
    2.4637    0.3983    0.0000 C   0  0  0  0  0  0  0  0  0  0  0  0
    3.1782    0.8108    0.0000 C   0  0  0  0  0  0  0  0  0  0  0  0
    3.8926    0.3983    0.0000 C   0  0  0  0  0  0  0  0  0  0  0  0
    3.8926   -0.4267    0.0000 C   0  0  0  0  0  0  0  0  0  0  0  0
    3.1782    1.6358    0.0000 F   0  0  0  0  0  0  0  0  0  0  0  0
    3.8926   -2.0767    0.0000 C   0  0  0  0  0  0  0  0  0  0  0  0
    4.6071   -1.6642    0.0000 C   0  0  0  0  0  0  0  0  0  0  0  0
    5.3216   -2.0767    0.0000 C   0  0  0  0  0  0  0  0  0  0  0  0
    5.3216   -2.9017    0.0000 C   0  0  0  0  0  0  0  0  0  0  0  0
    4.6071   -3.3142    0.0000 C   0  0  0  0  0  0  0  0  0  0  0  0
    3.8926   -2.9017    0.0000 C   0  0  0  0  0  0  0  0  0  0  0  0
    6.0361   -3.3142    0.0000 F   0  0  0  0  0  0  0  0  0  0  0  0
  1  2  1  0  0  0  0
  2  3  1  0  0  0  0
  3  4  1  0  0  0  0
  4  5  2  0  0  0  0
  4  6  1  0  0  0  0
  6  7  1  0  0  0  0
  7  8  1  0  0  0  0
  8  9  1  0  0  0  0
  9 10  1  0  0  0  0
 10 11  1  0  0  0  0
  6 11  1  0  0  0  0
  9 12  1  0  0  0  0
 12 13  1  0  0  0  0
 13 14  1  0  0  0  0
 14 15  1  0  0  0  0
 15 16  1  0  0  0  0
 16 17  4  0  0  0  0
 17 18  4  0  0  0  0
 18 19  4  0  0  0  0
 19 20  4  0  0  0  0
 20 21  4  0  0  0  0
 16 21  4  0  0  0  0
 19 22  1  0  0  0  0
 15 23  1  0  0  0  0
 23 24  4  0  0  0  0
 24 25  4  0  0  0  0
 25 26  4  0  0  0  0
 26 27  4  0  0  0  0
 27 28  4  0  0  0  0
 23 28  4  0  0  0  0
 26 29  1  0  0  0  0
M  END
>  <MOL_ID>
10
>  <Name_of_compounds>
Amperozide
>  <Activity_Profiles>
1 1 1 1 1
>  <INITIAL_ID>
110

>  <SUM_activity>
5

$$$$

  Marvin  08130811232D          

 29 32  0  0  0  0            999 V2000
    2.7203    4.4162    0.0000 C   0  0  0  0  0  0  0  0  0  0  0  0
    3.5453    4.4162    0.0000 C   0  0  0  0  0  0  0  0  0  0  0  0
    3.9578    3.7017    0.0000 N   0  0  0  0  0  0  0  0  0  0  0  0
    3.5453    2.9873    0.0000 C   0  0  0  0  0  0  0  0  0  0  0  0
    2.7203    2.9873    0.0000 C   0  0  0  0  0  0  0  0  0  0  0  0
    2.3078    3.7017    0.0000 C   0  0  0  0  0  0  0  0  0  0  0  0
    1.8229    3.0343    0.0000 C   0  0  0  0  0  0  0  0  0  0  0  0
    2.0778    2.2497    0.0000 O   0  0  0  0  0  0  0  0  0  0  0  0
    1.0383    3.2892    0.0000 N   0  0  0  0  0  0  0  0  0  0  0  0
    1.0383    4.1142    0.0000 C   0  0  0  0  0  0  0  0  0  0  0  0
    1.8229    4.3692    0.0000 N   0  0  0  0  0  0  0  0  0  0  0  0
    2.0778    5.1538    0.0000 C   0  0  0  0  0  0  0  0  0  0  0  0
    1.5258    5.7669    0.0000 C   0  0  0  0  0  0  0  0  0  0  0  0
    1.7807    6.5515    0.0000 C   0  0  0  0  0  0  0  0  0  0  0  0
    2.5877    6.7230    0.0000 C   0  0  0  0  0  0  0  0  0  0  0  0
    3.1397    6.1099    0.0000 C   0  0  0  0  0  0  0  0  0  0  0  0
    2.8848    5.3253    0.0000 C   0  0  0  0  0  0  0  0  0  0  0  0
    4.7828    3.7017    0.0000 C   0  0  0  0  0  0  0  0  0  0  0  0
    5.1953    4.4162    0.0000 C   0  0  0  0  0  0  0  0  0  0  0  0
    6.0203    4.4162    0.0000 C   0  0  0  0  0  0  0  0  0  0  0  0
    6.4328    5.1307    0.0000 C   0  0  0  0  0  0  0  0  0  0  0  0
    6.0203    5.8451    0.0000 O   0  0  0  0  0  0  0  0  0  0  0  0
    7.2578    5.1307    0.0000 C   0  0  0  0  0  0  0  0  0  0  0  0
    7.6703    5.8451    0.0000 C   0  0  0  0  0  0  0  0  0  0  0  0
    8.4953    5.8451    0.0000 C   0  0  0  0  0  0  0  0  0  0  0  0
    8.9078    5.1307    0.0000 C   0  0  0  0  0  0  0  0  0  0  0  0
    8.4953    4.4162    0.0000 C   0  0  0  0  0  0  0  0  0  0  0  0
    7.6703    4.4162    0.0000 C   0  0  0  0  0  0  0  0  0  0  0  0
    9.7328    5.1307    0.0000 F   0  0  0  0  0  0  0  0  0  0  0  0
  1  2  1  0  0  0  0
  2  3  1  0  0  0  0
  3  4  1  0  0  0  0
  4  5  1  0  0  0  0
  5  6  1  0  0  0  0
  1  6  1  0  0  0  0
  6  7  1  0  0  0  0
  7  8  2  0  0  0  0
  7  9  1  0  0  0  0
  9 10  1  0  0  0  0
 10 11  1  0  0  0  0
  6 11  1  0  0  0  0
 11 12  1  0  0  0  0
 12 13  4  0  0  0  0
 13 14  4  0  0  0  0
 14 15  4  0  0  0  0
 15 16  4  0  0  0  0
 16 17  4  0  0  0  0
 12 17  4  0  0  0  0
  3 18  1  0  0  0  0
 18 19  1  0  0  0  0
 19 20  1  0  0  0  0
 20 21  1  0  0  0  0
 21 22  2  0  0  0  0
 21 23  1  0  0  0  0
 23 24  4  0  0  0  0
 24 25  4  0  0  0  0
 25 26  4  0  0  0  0
 26 27  4  0  0  0  0
 27 28  4  0  0  0  0
 23 28  4  0  0  0  0
 26 29  1  0  0  0  0
M  END
>  <MOL_ID>
6
>  <Name_of_compounds>
Spiperone
>  <Activity_Profiles>
1 1 1 1 1
>  <INITIAL_ID>
106

>  <SUM_activity>
5

$$$$

  Marvin  08130811232D          

 25 28  0  0  0  0            999 V2000
    7.5162   -3.0195    0.0000 C   0  0  0  0  0  0  0  0  0  0  0  0
    6.8018   -3.4320    0.0000 N   0  0  0  0  0  0  0  0  0  0  0  0
    6.8018   -4.2570    0.0000 C   0  0  0  0  0  0  0  0  0  0  0  0
    6.0873   -4.6695    0.0000 C   0  0  0  0  0  0  0  0  0  0  0  0
    5.3728   -4.2570    0.0000 C   0  0  0  0  0  0  0  0  0  0  0  0
    5.3728   -3.4320    0.0000 C   0  0  0  0  0  0  0  0  0  0  0  0
    6.0873   -3.0195    0.0000 C   0  0  0  0  0  0  0  0  0  0  0  0
    6.0873   -2.1945    0.0000 C   0  0  0  0  0  0  0  0  0  0  0  0
    5.3728   -1.7820    0.0000 C   0  0  0  0  0  0  0  0  0  0  0  0
    5.3728   -0.9570    0.0000 N   0  0  0  0  0  0  0  0  0  0  0  0
    6.0873   -0.5445    0.0000 C   0  0  0  0  0  0  0  0  0  0  0  0
    6.8018   -0.9570    0.0000 C   0  0  0  0  0  0  0  0  0  0  0  0
    7.5162   -0.5445    0.0000 C   0  0  0  0  0  0  0  0  0  0  0  0
    7.5162    0.2805    0.0000 C   0  0  0  0  0  0  0  0  0  0  0  0
    6.8018    0.6930    0.0000 C   0  0  0  0  0  0  0  0  0  0  0  0
    6.0873    0.2805    0.0000 C   0  0  0  0  0  0  0  0  0  0  0  0
    5.3728    0.6930    0.0000 S   0  0  0  0  0  0  0  0  0  0  0  0
    4.6584    0.2805    0.0000 C   0  0  0  0  0  0  0  0  0  0  0  0
    4.6584   -0.5445    0.0000 C   0  0  0  0  0  0  0  0  0  0  0  0
    3.9439   -0.9570    0.0000 C   0  0  0  0  0  0  0  0  0  0  0  0
    3.2294   -0.5445    0.0000 C   0  0  0  0  0  0  0  0  0  0  0  0
    3.2294    0.2805    0.0000 C   0  0  0  0  0  0  0  0  0  0  0  0
    3.9439    0.6930    0.0000 C   0  0  0  0  0  0  0  0  0  0  0  0
    2.5149   -0.9570    0.0000 S   0  0  0  0  0  0  0  0  0  0  0  0
    1.8005   -0.5445    0.0000 C   0  0  0  0  0  0  0  0  0  0  0  0
  1  2  1  0  0  0  0
  2  3  1  0  0  0  0
  3  4  1  0  0  0  0
  4  5  1  0  0  0  0
  5  6  1  0  0  0  0
  6  7  1  0  0  0  0
  2  7  1  0  0  0  0
  7  8  1  0  0  0  0
  8  9  1  0  0  0  0
  9 10  1  0  0  0  0
 10 11  1  0  0  0  0
 11 12  4  0  0  0  0
 12 13  4  0  0  0  0
 13 14  4  0  0  0  0
 14 15  4  0  0  0  0
 15 16  4  0  0  0  0
 11 16  4  0  0  0  0
 16 17  1  0  0  0  0
 17 18  1  0  0  0  0
 18 19  4  0  0  0  0
 10 19  1  0  0  0  0
 19 20  4  0  0  0  0
 20 21  4  0  0  0  0
 21 22  4  0  0  0  0
 22 23  4  0  0  0  0
 18 23  4  0  0  0  0
 21 24  1  0  0  0  0
 24 25  1  0  0  0  0
M  END
>  <MOL_ID>
8
>  <Name_of_compounds>
Thioridazine
>  <Activity_Profiles>
1 1 1 1 1
>  <INITIAL_ID>
108

>  <SUM_activity>
5

$$$$

  Marvin  08130811232D          

 31 35  0  0  0  0            999 V2000
    0.7846   -0.2549    0.0000 C   0  0  0  0  0  0  0  0  0  0  0  0
   -0.0000   -0.0000    0.0000 C   0  0  0  0  0  0  0  0  0  0  0  0
   -0.0000    0.8250    0.0000 C   0  0  0  0  0  0  0  0  0  0  0  0
    0.7846    1.0799    0.0000 C   0  0  0  0  0  0  0  0  0  0  0  0
    1.2695    0.4125    0.0000 C   0  0  0  0  0  0  0  0  0  0  0  0
    0.2326    1.6930    0.0000 C   0  0  0  0  0  0  0  0  0  0  0  0
    0.4875    2.4776    0.0000 C   0  0  0  0  0  0  0  0  0  0  0  0
   -0.0645    3.0907    0.0000 O   0  0  0  0  0  0  0  0  0  0  0  0
    1.2945    2.6492    0.0000 N   0  0  0  0  0  0  0  0  0  0  0  0
    1.8465    2.0361    0.0000 C   0  0  0  0  0  0  0  0  0  0  0  0
    2.6535    2.2076    0.0000 O   0  0  0  0  0  0  0  0  0  0  0  0
    1.5916    1.2515    0.0000 C   0  0  0  0  0  0  0  0  0  0  0  0
    1.5494    3.4338    0.0000 C   0  0  0  0  0  0  0  0  0  0  0  0
    0.9974    4.0469    0.0000 C   0  0  0  0  0  0  0  0  0  0  0  0
    1.2523    4.8315    0.0000 C   0  0  0  0  0  0  0  0  0  0  0  0
    0.7003    5.4446    0.0000 C   0  0  0  0  0  0  0  0  0  0  0  0
    0.9552    6.2292    0.0000 N   0  0  0  0  0  0  0  0  0  0  0  0
    0.4032    6.8423    0.0000 C   0  0  0  0  0  0  0  0  0  0  0  0
    0.6582    7.6269    0.0000 C   0  0  0  0  0  0  0  0  0  0  0  0
    1.4651    7.7985    0.0000 N   0  0  0  0  0  0  0  0  0  0  0  0
    2.0172    7.1854    0.0000 C   0  0  0  0  0  0  0  0  0  0  0  0
    1.7622    6.4008    0.0000 C   0  0  0  0  0  0  0  0  0  0  0  0
    1.7201    8.5831    0.0000 C   0  0  0  0  0  0  0  0  0  0  0  0
    1.2351    9.2505    0.0000 N   0  0  0  0  0  0  0  0  0  0  0  0
    1.7201    9.9180    0.0000 S   0  0  0  0  0  0  0  0  0  0  0  0
    2.5047    9.6630    0.0000 C   0  0  0  0  0  0  0  0  0  0  0  0
    3.2192   10.0755    0.0000 C   0  0  0  0  0  0  0  0  0  0  0  0
    3.9336    9.6630    0.0000 C   0  0  0  0  0  0  0  0  0  0  0  0
    3.9336    8.8380    0.0000 C   0  0  0  0  0  0  0  0  0  0  0  0
    3.2192    8.4255    0.0000 C   0  0  0  0  0  0  0  0  0  0  0  0
    2.5047    8.8380    0.0000 C   0  0  0  0  0  0  0  0  0  0  0  0
  1  2  1  0  0  0  0
  2  3  1  0  0  0  0
  3  4  1  0  0  0  0
  4  5  1  0  0  0  0
  1  5  1  0  0  0  0
  4  6  1  0  0  0  0
  6  7  1  0  0  0  0
  7  8  2  0  0  0  0
  7  9  1  0  0  0  0
  9 10  1  0  0  0  0
 10 11  2  0  0  0  0
 10 12  1  0  0  0  0
  4 12  1  0  0  0  0
  9 13  1  0  0  0  0
 13 14  1  0  0  0  0
 14 15  1  0  0  0  0
 15 16  1  0  0  0  0
 16 17  1  0  0  0  0
 17 18  1  0  0  0  0
 18 19  1  0  0  0  0
 19 20  1  0  0  0  0
 20 21  1  0  0  0  0
 21 22  1  0  0  0  0
 17 22  1  0  0  0  0
 20 23  1  0  0  0  0
 23 24  4  0  0  0  0
 24 25  4  0  0  0  0
 25 26  4  0  0  0  0
 26 27  4  0  0  0  0
 27 28  4  0  0  0  0
 28 29  4  0  0  0  0
 29 30  4  0  0  0  0
 30 31  4  0  0  0  0
 26 31  4  0  0  0  0
 23 31  4  0  0  0  0
M  END
>  <MOL_ID>
60
>  <Name_of_compounds>
tiaspirone
>  <Activity_Profiles>
1 1 1 1 1
>  <INITIAL_ID>
1308

>  <SUM_activity>
5

$$$$

  Marvin  08130811232D          

 28 31  0  0  0  0            999 V2000
   10.8521    4.6743    0.0000 C   0  0  0  0  0  0  0  0  0  0  0  0
   10.1376    4.2618    0.0000 C   0  0  0  0  0  0  0  0  0  0  0  0
   10.1376    3.4368    0.0000 C   0  0  0  0  0  0  0  0  0  0  0  0
    9.4231    3.0243    0.0000 C   0  0  0  0  0  0  0  0  0  0  0  0
    9.4231    2.1993    0.0000 O   0  0  0  0  0  0  0  0  0  0  0  0
    8.7087    3.4368    0.0000 N   0  0  0  0  0  0  0  0  0  0  0  0
    7.9240    3.1819    0.0000 C   0  0  0  0  0  0  0  0  0  0  0  0
    7.4391    3.8493    0.0000 C   0  0  0  0  0  0  0  0  0  0  0  0
    7.9240    4.5168    0.0000 S   0  0  0  0  0  0  0  0  0  0  0  0
    8.7087    4.2618    0.0000 C   0  0  0  0  0  0  0  0  0  0  0  0
    9.4231    4.6743    0.0000 N   0  0  0  0  0  0  0  0  0  0  0  0
   10.8521    3.0243    0.0000 C   0  0  0  0  0  0  0  0  0  0  0  0
   11.5665    3.4368    0.0000 C   0  0  0  0  0  0  0  0  0  0  0  0
   12.2810    3.0243    0.0000 N   0  0  0  0  0  0  0  0  0  0  0  0
   12.9955    3.4368    0.0000 C   0  0  0  0  0  0  0  0  0  0  0  0
   13.7100    3.0243    0.0000 C   0  0  0  0  0  0  0  0  0  0  0  0
   13.7100    2.1993    0.0000 C   0  0  0  0  0  0  0  0  0  0  0  0
   12.9955    1.7868    0.0000 C   0  0  0  0  0  0  0  0  0  0  0  0
   12.2810    2.1993    0.0000 C   0  0  0  0  0  0  0  0  0  0  0  0
   14.4244    1.7868    0.0000 C   0  0  0  0  0  0  0  0  0  0  0  0
   14.4244    0.9618    0.0000 O   0  0  0  0  0  0  0  0  0  0  0  0
   15.1389    2.1993    0.0000 C   0  0  0  0  0  0  0  0  0  0  0  0
   15.1389    3.0243    0.0000 C   0  0  0  0  0  0  0  0  0  0  0  0
   15.8534    3.4368    0.0000 C   0  0  0  0  0  0  0  0  0  0  0  0
   16.5678    3.0243    0.0000 C   0  0  0  0  0  0  0  0  0  0  0  0
   16.5678    2.1993    0.0000 C   0  0  0  0  0  0  0  0  0  0  0  0
   15.8534    1.7868    0.0000 C   0  0  0  0  0  0  0  0  0  0  0  0
   17.2823    3.4368    0.0000 F   0  0  0  0  0  0  0  0  0  0  0  0
  1  2  1  0  0  0  0
  2  3  2  0  0  0  0
  3  4  1  0  0  0  0
  4  5  2  0  0  0  0
  4  6  1  0  0  0  0
  6  7  1  0  0  0  0
  7  8  1  0  0  0  0
  8  9  1  0  0  0  0
  9 10  1  0  0  0  0
  6 10  1  0  0  0  0
 10 11  2  0  0  0  0
  2 11  1  0  0  0  0
  3 12  1  0  0  0  0
 12 13  1  0  0  0  0
 13 14  1  0  0  0  0
 14 15  1  0  0  0  0
 15 16  1  0  0  0  0
 16 17  1  0  0  0  0
 17 18  1  0  0  0  0
 18 19  1  0  0  0  0
 14 19  1  0  0  0  0
 17 20  1  0  0  0  0
 20 21  2  0  0  0  0
 20 22  1  0  0  0  0
 22 23  4  0  0  0  0
 23 24  4  0  0  0  0
 24 25  4  0  0  0  0
 25 26  4  0  0  0  0
 26 27  4  0  0  0  0
 22 27  4  0  0  0  0
 25 28  1  0  0  0  0
M  END
>  <MOL_ID>
59
>  <Name_of_compounds>
setoperone
>  <Activity_Profiles>
1 1 1 1 1
>  <INITIAL_ID>
1307

>  <SUM_activity>
5

$$$$

  Marvin  08130811232D          

 26 29  0  0  0  0            999 V2000
    7.3645   -3.1413    0.0000 C   0  0  0  0  0  0  0  0  0  0  0  0
    6.6501   -3.5538    0.0000 N   0  0  0  0  0  0  0  0  0  0  0  0
    6.6501   -4.3788    0.0000 C   0  0  0  0  0  0  0  0  0  0  0  0
    5.9356   -4.7913    0.0000 C   0  0  0  0  0  0  0  0  0  0  0  0
    5.2211   -4.3788    0.0000 C   0  0  0  0  0  0  0  0  0  0  0  0
    5.2211   -3.5538    0.0000 C   0  0  0  0  0  0  0  0  0  0  0  0
    5.9356   -3.1413    0.0000 C   0  0  0  0  0  0  0  0  0  0  0  0
    5.9356   -2.3163    0.0000 C   0  0  0  0  0  0  0  0  0  0  0  0
    5.2211   -1.9038    0.0000 C   0  0  0  0  0  0  0  0  0  0  0  0
    5.2211   -1.0788    0.0000 N   0  0  0  0  0  0  0  0  0  0  0  0
    5.9356   -0.6663    0.0000 C   0  0  0  0  0  0  0  0  0  0  0  0
    6.6501   -1.0788    0.0000 C   0  0  0  0  0  0  0  0  0  0  0  0
    7.3645   -0.6663    0.0000 C   0  0  0  0  0  0  0  0  0  0  0  0
    7.3645    0.1587    0.0000 C   0  0  0  0  0  0  0  0  0  0  0  0
    6.6501    0.5712    0.0000 C   0  0  0  0  0  0  0  0  0  0  0  0
    5.9356    0.1587    0.0000 C   0  0  0  0  0  0  0  0  0  0  0  0
    5.2211    0.5712    0.0000 S   0  0  0  0  0  0  0  0  0  0  0  0
    4.5067    0.1587    0.0000 C   0  0  0  0  0  0  0  0  0  0  0  0
    4.5067   -0.6663    0.0000 C   0  0  0  0  0  0  0  0  0  0  0  0
    3.7922   -1.0788    0.0000 C   0  0  0  0  0  0  0  0  0  0  0  0
    3.0777   -0.6663    0.0000 C   0  0  0  0  0  0  0  0  0  0  0  0
    3.0777    0.1587    0.0000 C   0  0  0  0  0  0  0  0  0  0  0  0
    3.7922    0.5712    0.0000 C   0  0  0  0  0  0  0  0  0  0  0  0
    2.3633   -1.0788    0.0000 S   0  0  0  0  0  0  0  0  0  0  0  0
    1.6488   -0.6663    0.0000 O   0  0  0  0  0  0  0  0  0  0  0  0
    2.3633   -1.9038    0.0000 C   0  0  0  0  0  0  0  0  0  0  0  0
  1  2  1  0  0  0  0
  2  3  1  0  0  0  0
  3  4  1  0  0  0  0
  4  5  1  0  0  0  0
  5  6  1  0  0  0  0
  6  7  1  0  0  0  0
  2  7  1  0  0  0  0
  7  8  1  0  0  0  0
  8  9  1  0  0  0  0
  9 10  1  0  0  0  0
 10 11  1  0  0  0  0
 11 12  4  0  0  0  0
 12 13  4  0  0  0  0
 13 14  4  0  0  0  0
 14 15  4  0  0  0  0
 15 16  4  0  0  0  0
 11 16  4  0  0  0  0
 16 17  1  0  0  0  0
 17 18  1  0  0  0  0
 18 19  4  0  0  0  0
 10 19  1  0  0  0  0
 19 20  4  0  0  0  0
 20 21  4  0  0  0  0
 21 22  4  0  0  0  0
 22 23  4  0  0  0  0
 18 23  4  0  0  0  0
 21 24  1  0  0  0  0
 24 25  2  0  0  0  0
 24 26  1  0  0  0  0
M  END
>  <MOL_ID>
61
>  <Name_of_compounds>
mesoridazine
>  <Activity_Profiles>
1 1 1 1 1
>  <INITIAL_ID>
1309

>  <SUM_activity>
5

$$$$

  Marvin  08130811232D          

 25 28  0  0  0  0            999 V2000
    9.9454   -4.4220    0.0000 C   0  0  0  0  0  0  0  0  0  0  0  0
    9.2310   -4.0095    0.0000 N   0  0  0  0  0  0  0  0  0  0  0  0
    8.5165   -4.4220    0.0000 C   0  0  0  0  0  0  0  0  0  0  0  0
    7.8020   -4.0095    0.0000 C   0  0  0  0  0  0  0  0  0  0  0  0
    7.8020   -3.1845    0.0000 N   0  0  0  0  0  0  0  0  0  0  0  0
    8.5165   -2.7720    0.0000 C   0  0  0  0  0  0  0  0  0  0  0  0
    9.2310   -3.1845    0.0000 C   0  0  0  0  0  0  0  0  0  0  0  0
    7.0876   -2.7720    0.0000 C   0  0  0  0  0  0  0  0  0  0  0  0
    7.0876   -1.9470    0.0000 C   0  0  0  0  0  0  0  0  0  0  0  0
    6.3731   -1.5345    0.0000 C   0  0  0  0  0  0  0  0  0  0  0  0
    6.3731   -0.7095    0.0000 N   0  0  0  0  0  0  0  0  0  0  0  0
    7.0876   -0.2970    0.0000 C   0  0  0  0  0  0  0  0  0  0  0  0
    7.8020   -0.7095    0.0000 C   0  0  0  0  0  0  0  0  0  0  0  0
    8.5165   -0.2970    0.0000 C   0  0  0  0  0  0  0  0  0  0  0  0
    8.5165    0.5280    0.0000 C   0  0  0  0  0  0  0  0  0  0  0  0
    7.8020    0.9405    0.0000 C   0  0  0  0  0  0  0  0  0  0  0  0
    7.0876    0.5280    0.0000 C   0  0  0  0  0  0  0  0  0  0  0  0
    6.3731    0.9405    0.0000 S   0  0  0  0  0  0  0  0  0  0  0  0
    5.6586    0.5280    0.0000 C   0  0  0  0  0  0  0  0  0  0  0  0
    5.6586   -0.2970    0.0000 C   0  0  0  0  0  0  0  0  0  0  0  0
    4.9441   -0.7095    0.0000 C   0  0  0  0  0  0  0  0  0  0  0  0
    4.2297   -0.2970    0.0000 C   0  0  0  0  0  0  0  0  0  0  0  0
    4.2297    0.5280    0.0000 C   0  0  0  0  0  0  0  0  0  0  0  0
    4.9441    0.9405    0.0000 C   0  0  0  0  0  0  0  0  0  0  0  0
    3.5152   -0.7095    0.0000 Cl  0  0  0  0  0  0  0  0  0  0  0  0
  1  2  1  0  0  0  0
  2  3  1  0  0  0  0
  3  4  1  0  0  0  0
  4  5  1  0  0  0  0
  5  6  1  0  0  0  0
  6  7  1  0  0  0  0
  2  7  1  0  0  0  0
  5  8  1  0  0  0  0
  8  9  1  0  0  0  0
  9 10  1  0  0  0  0
 10 11  1  0  0  0  0
 11 12  1  0  0  0  0
 12 13  4  0  0  0  0
 13 14  4  0  0  0  0
 14 15  4  0  0  0  0
 15 16  4  0  0  0  0
 16 17  4  0  0  0  0
 12 17  4  0  0  0  0
 17 18  1  0  0  0  0
 18 19  1  0  0  0  0
 19 20  4  0  0  0  0
 11 20  1  0  0  0  0
 20 21  4  0  0  0  0
 21 22  4  0  0  0  0
 22 23  4  0  0  0  0
 23 24  4  0  0  0  0
 19 24  4  0  0  0  0
 22 25  1  0  0  0  0
M  END
>  <MOL_ID>
56
>  <Name_of_compounds>
prochlorperazine
>  <Activity_Profiles>
1 1 1 1 1
>  <INITIAL_ID>
1304

>  <SUM_activity>
5

$$$$

  Marvin  08130811232D          

 27 30  0  0  0  0            999 V2000
    9.1558   -2.8417    0.0000 C   0  0  0  0  0  0  0  0  0  0  0  0
    9.8703   -3.2542    0.0000 C   0  0  0  0  0  0  0  0  0  0  0  0
    9.8703   -4.0792    0.0000 N   0  0  0  0  0  0  0  0  0  0  0  0
    9.1558   -4.4917    0.0000 C   0  0  0  0  0  0  0  0  0  0  0  0
    8.4413   -4.0792    0.0000 C   0  0  0  0  0  0  0  0  0  0  0  0
    8.4413   -3.2542    0.0000 N   0  0  0  0  0  0  0  0  0  0  0  0
    7.7269   -2.8417    0.0000 C   0  0  0  0  0  0  0  0  0  0  0  0
    7.7269   -2.0167    0.0000 C   0  0  0  0  0  0  0  0  0  0  0  0
    7.0124   -1.6042    0.0000 C   0  0  0  0  0  0  0  0  0  0  0  0
    7.0124   -0.7792    0.0000 N   0  0  0  0  0  0  0  0  0  0  0  0
    7.7269   -0.3667    0.0000 C   0  0  0  0  0  0  0  0  0  0  0  0
    8.4413   -0.7792    0.0000 C   0  0  0  0  0  0  0  0  0  0  0  0
    9.1558   -0.3667    0.0000 C   0  0  0  0  0  0  0  0  0  0  0  0
    9.1558    0.4583    0.0000 C   0  0  0  0  0  0  0  0  0  0  0  0
    8.4413    0.8708    0.0000 C   0  0  0  0  0  0  0  0  0  0  0  0
    7.7269    0.4583    0.0000 C   0  0  0  0  0  0  0  0  0  0  0  0
    7.0124    0.8708    0.0000 S   0  0  0  0  0  0  0  0  0  0  0  0
    6.2979    0.4583    0.0000 C   0  0  0  0  0  0  0  0  0  0  0  0
    6.2979   -0.3667    0.0000 C   0  0  0  0  0  0  0  0  0  0  0  0
    5.5835   -0.7792    0.0000 C   0  0  0  0  0  0  0  0  0  0  0  0
    4.8690   -0.3667    0.0000 C   0  0  0  0  0  0  0  0  0  0  0  0
    4.8690    0.4583    0.0000 C   0  0  0  0  0  0  0  0  0  0  0  0
    5.5835    0.8708    0.0000 C   0  0  0  0  0  0  0  0  0  0  0  0
    4.1545   -0.7792    0.0000 Cl  0  0  0  0  0  0  0  0  0  0  0  0
   10.5848   -4.4917    0.0000 C   0  0  0  0  0  0  0  0  0  0  0  0
   11.2992   -4.0792    0.0000 C   0  0  0  0  0  0  0  0  0  0  0  0
   12.0137   -4.4917    0.0000 O   0  0  0  0  0  0  0  0  0  0  0  0
  1  2  1  0  0  0  0
  2  3  1  0  0  0  0
  3  4  1  0  0  0  0
  4  5  1  0  0  0  0
  5  6  1  0  0  0  0
  1  6  1  0  0  0  0
  6  7  1  0  0  0  0
  7  8  1  0  0  0  0
  8  9  1  0  0  0  0
  9 10  1  0  0  0  0
 10 11  1  0  0  0  0
 11 12  4  0  0  0  0
 12 13  4  0  0  0  0
 13 14  4  0  0  0  0
 14 15  4  0  0  0  0
 15 16  4  0  0  0  0
 11 16  4  0  0  0  0
 16 17  1  0  0  0  0
 17 18  1  0  0  0  0
 18 19  4  0  0  0  0
 10 19  1  0  0  0  0
 19 20  4  0  0  0  0
 20 21  4  0  0  0  0
 21 22  4  0  0  0  0
 22 23  4  0  0  0  0
 18 23  4  0  0  0  0
 21 24  1  0  0  0  0
  3 25  1  0  0  0  0
 25 26  1  0  0  0  0
 26 27  1  0  0  0  0
M  END
>  <MOL_ID>
57
>  <Name_of_compounds>
perphenazine
>  <Activity_Profiles>
1 1 1 1 1
>  <INITIAL_ID>
1305

>  <SUM_activity>
5

$$$$

  Marvin  08130811232D          

 24 27  0  0  0  0            999 V2000
   -0.3786   -4.5089    0.0000 C   0  0  0  0  0  0  0  0  0  0  0  0
    0.1615   -5.1326    0.0000 O   0  0  0  0  0  0  0  0  0  0  0  0
    0.9716   -4.9767    0.0000 C   0  0  0  0  0  0  0  0  0  0  0  0
    1.5117   -5.6003    0.0000 C   0  0  0  0  0  0  0  0  0  0  0  0
    2.3219   -5.4444    0.0000 C   0  0  0  0  0  0  0  0  0  0  0  0
    2.5919   -4.6648    0.0000 C   0  0  0  0  0  0  0  0  0  0  0  0
    3.4020   -4.5089    0.0000 C   0  0  0  0  0  0  0  0  0  0  0  0
    3.9421   -5.1326    0.0000 C   0  0  0  0  0  0  0  0  0  0  0  0
    4.7523   -4.9767    0.0000 C   0  0  0  0  0  0  0  0  0  0  0  0
    5.0223   -4.1971    0.0000 C   0  0  0  0  0  0  0  0  0  0  0  0
    4.4822   -3.5735    0.0000 C   0  0  0  0  0  0  0  0  0  0  0  0
    3.6721   -3.7294    0.0000 N   0  0  0  0  0  0  0  0  0  0  0  0
    3.1320   -3.1057    0.0000 C   0  0  0  0  0  0  0  0  0  0  0  0
    2.3219   -3.2616    0.0000 C   0  0  0  0  0  0  0  0  0  0  0  0
    2.0518   -4.0412    0.0000 C   0  0  0  0  0  0  0  0  0  0  0  0
    1.2417   -4.1971    0.0000 C   0  0  0  0  0  0  0  0  0  0  0  0
    5.8324   -4.0412    0.0000 C   0  0  0  0  0  0  0  0  0  0  0  0
    6.3725   -4.6648    0.0000 C   0  0  0  0  0  0  0  0  0  0  0  0
    6.1025   -5.4444    0.0000 C   0  0  0  0  0  0  0  0  0  0  0  0
    5.2924   -5.6003    0.0000 C   0  0  0  0  0  0  0  0  0  0  0  0
    7.1827   -4.5089    0.0000 O   0  0  0  0  0  0  0  0  0  0  0  0
    6.1025   -3.2616    0.0000 O   0  0  0  0  0  0  0  0  0  0  0  0
    6.9126   -3.1057    0.0000 C   0  0  0  0  0  0  0  0  0  0  0  0
    1.2417   -6.3798    0.0000 O   0  0  0  0  0  0  0  0  0  0  0  0
  1  2  1  0  0  0  0
  2  3  1  0  0  0  0
  3  4  4  0  0  0  0
  4  5  4  0  0  0  0
  5  6  4  0  0  0  0
  6  7  1  0  0  0  0
  7  8  1  0  0  0  0
  8  9  1  0  0  0  0
  9 10  4  0  0  0  0
 10 11  1  0  0  0  0
 11 12  1  0  0  0  0
  7 12  1  0  0  0  0
 12 13  1  0  0  0  0
 13 14  1  0  0  0  0
 14 15  1  0  0  0  0
  6 15  4  0  0  0  0
 15 16  4  0  0  0  0
  3 16  4  0  0  0  0
 10 17  4  0  0  0  0
 17 18  4  0  0  0  0
 18 19  4  0  0  0  0
 19 20  4  0  0  0  0
  9 20  4  0  0  0  0
 18 21  1  0  0  0  0
 17 22  1  0  0  0  0
 22 23  1  0  0  0  0
  4 24  1  0  0  0  0
M  END
>  <MOL_ID>
102
>  <Name_of_compounds>
Stepholidine
>  <Activity_Profiles>
1 1 1 1 1
>  <INITIAL_ID>
1798

>  <SUM_activity>
5

$$$$

  Marvin  08130811232D          

 22 25  0  0  0  0            999 V2000
    5.5920    3.9249    0.0000 C   0  0  0  0  0  0  0  0  0  0  0  0
    5.9500    3.1816    0.0000 C   0  0  0  0  0  0  0  0  0  0  0  0
    5.4852    2.4999    0.0000 N   0  0  0  0  0  0  0  0  0  0  0  0
    4.6626    2.5616    0.0000 C   0  0  0  0  0  0  0  0  0  0  0  0
    4.3046    3.3049    0.0000 C   0  0  0  0  0  0  0  0  0  0  0  0
    4.7693    3.9865    0.0000 N   0  0  0  0  0  0  0  0  0  0  0  0
    5.8432    1.7566    0.0000 C   0  0  0  0  0  0  0  0  0  0  0  0
    6.6682    1.7566    0.0000 N   0  0  0  0  0  0  0  0  0  0  0  0
    7.1826    1.1116    0.0000 C   0  0  0  0  0  0  0  0  0  0  0  0
    7.9709    1.3548    0.0000 C   0  0  0  0  0  0  0  0  0  0  0  0
    8.5757    0.7937    0.0000 C   0  0  0  0  0  0  0  0  0  0  0  0
    8.3921   -0.0106    0.0000 C   0  0  0  0  0  0  0  0  0  0  0  0
    7.6038   -0.2538    0.0000 C   0  0  0  0  0  0  0  0  0  0  0  0
    6.9990    0.3073    0.0000 C   0  0  0  0  0  0  0  0  0  0  0  0
    6.2557   -0.0506    0.0000 O   0  0  0  0  0  0  0  0  0  0  0  0
    5.5124    0.3073    0.0000 C   0  0  0  0  0  0  0  0  0  0  0  0
    5.3288    1.1116    0.0000 C   0  0  0  0  0  0  0  0  0  0  0  0
    4.5405    1.3548    0.0000 C   0  0  0  0  0  0  0  0  0  0  0  0
    3.9357    0.7937    0.0000 C   0  0  0  0  0  0  0  0  0  0  0  0
    4.1193   -0.0106    0.0000 C   0  0  0  0  0  0  0  0  0  0  0  0
    4.9076   -0.2538    0.0000 C   0  0  0  0  0  0  0  0  0  0  0  0
    3.1474    1.0368    0.0000 Cl  0  0  0  0  0  0  0  0  0  0  0  0
  1  2  1  0  0  0  0
  2  3  1  0  0  0  0
  3  4  1  0  0  0  0
  4  5  1  0  0  0  0
  5  6  1  0  0  0  0
  1  6  1  0  0  0  0
  3  7  1  0  0  0  0
  7  8  2  0  0  0  0
  8  9  1  0  0  0  0
  9 10  4  0  0  0  0
 10 11  4  0  0  0  0
 11 12  4  0  0  0  0
 12 13  4  0  0  0  0
 13 14  4  0  0  0  0
  9 14  4  0  0  0  0
 14 15  1  0  0  0  0
 15 16  1  0  0  0  0
 16 17  4  0  0  0  0
  7 17  1  0  0  0  0
 17 18  4  0  0  0  0
 18 19  4  0  0  0  0
 19 20  4  0  0  0  0
 20 21  4  0  0  0  0
 16 21  4  0  0  0  0
 19 22  1  0  0  0  0
M  END
>  <MOL_ID>
105
>  <Name_of_compounds>
Amoxapine
>  <Activity_Profiles>
1 1 1 1 1
>  <INITIAL_ID>
1896

>  <SUM_activity>
5

$$$$

  Marvin  08130811232D          

 34 38  0  0  0  0            999 V2000
   -0.1482    7.0976    0.0000 C   0  0  0  0  0  0  0  0  0  0  0  0
   -0.4031    7.8822    0.0000 C   0  0  0  0  0  0  0  0  0  0  0  0
    0.1489    8.4953    0.0000 N   0  0  0  0  0  0  0  0  0  0  0  0
    0.9559    8.3238    0.0000 C   0  0  0  0  0  0  0  0  0  0  0  0
    1.2108    7.5391    0.0000 C   0  0  0  0  0  0  0  0  0  0  0  0
    0.6588    6.9260    0.0000 C   0  0  0  0  0  0  0  0  0  0  0  0
    0.9137    6.1414    0.0000 N   0  0  0  0  0  0  0  0  0  0  0  0
    1.6983    5.8865    0.0000 C   0  0  0  0  0  0  0  0  0  0  0  0
    2.4128    6.2990    0.0000 C   0  0  0  0  0  0  0  0  0  0  0  0
    3.1273    5.8865    0.0000 C   0  0  0  0  0  0  0  0  0  0  0  0
    3.1273    5.0615    0.0000 C   0  0  0  0  0  0  0  0  0  0  0  0
    2.4128    4.6490    0.0000 C   0  0  0  0  0  0  0  0  0  0  0  0
    1.6983    5.0615    0.0000 C   0  0  0  0  0  0  0  0  0  0  0  0
    0.9137    4.8065    0.0000 N   0  0  0  0  0  0  0  0  0  0  0  0
    0.4288    5.4740    0.0000 C   0  0  0  0  0  0  0  0  0  0  0  0
   -0.3962    5.4740    0.0000 O   0  0  0  0  0  0  0  0  0  0  0  0
   -0.1060    9.2799    0.0000 C   0  0  0  0  0  0  0  0  0  0  0  0
   -0.9130    9.4514    0.0000 C   0  0  0  0  0  0  0  0  0  0  0  0
   -1.1680   10.2360    0.0000 C   0  0  0  0  0  0  0  0  0  0  0  0
   -1.9749   10.4076    0.0000 C   0  0  0  0  0  0  0  0  0  0  0  0
   -2.5270    9.7945    0.0000 C   0  0  0  0  0  0  0  0  0  0  0  0
   -2.2720    9.0099    0.0000 C   0  0  0  0  0  0  0  0  0  0  0  0
   -2.8241    8.3968    0.0000 C   0  0  0  0  0  0  0  0  0  0  0  0
   -3.6310    8.5683    0.0000 C   0  0  0  0  0  0  0  0  0  0  0  0
   -3.8860    9.3529    0.0000 C   0  0  0  0  0  0  0  0  0  0  0  0
   -3.3339    9.9660    0.0000 C   0  0  0  0  0  0  0  0  0  0  0  0
   -4.1831    7.9552    0.0000 F   0  0  0  0  0  0  0  0  0  0  0  0
   -2.2299   11.1922    0.0000 C   0  0  0  0  0  0  0  0  0  0  0  0
   -3.0368   11.3637    0.0000 C   0  0  0  0  0  0  0  0  0  0  0  0
   -3.2918   12.1483    0.0000 C   0  0  0  0  0  0  0  0  0  0  0  0
   -2.7397   12.7614    0.0000 C   0  0  0  0  0  0  0  0  0  0  0  0
   -1.9328   12.5899    0.0000 C   0  0  0  0  0  0  0  0  0  0  0  0
   -1.6778   11.8053    0.0000 C   0  0  0  0  0  0  0  0  0  0  0  0
   -2.9947   13.5461    0.0000 F   0  0  0  0  0  0  0  0  0  0  0  0
  1  2  1  0  0  0  0
  2  3  1  0  0  0  0
  3  4  1  0  0  0  0
  4  5  1  0  0  0  0
  5  6  1  0  0  0  0
  1  6  1  0  0  0  0
  6  7  1  0  0  0  0
  7  8  1  0  0  0  0
  8  9  4  0  0  0  0
  9 10  4  0  0  0  0
 10 11  4  0  0  0  0
 11 12  4  0  0  0  0
 12 13  4  0  0  0  0
  8 13  4  0  0  0  0
 13 14  1  0  0  0  0
 14 15  1  0  0  0  0
  7 15  1  0  0  0  0
 15 16  2  0  0  0  0
  3 17  1  0  0  0  0
 17 18  1  0  0  0  0
 18 19  1  0  0  0  0
 19 20  1  0  0  0  0
 20 21  1  0  0  0  0
 21 22  4  0  0  0  0
 22 23  4  0  0  0  0
 23 24  4  0  0  0  0
 24 25  4  0  0  0  0
 25 26  4  0  0  0  0
 21 26  4  0  0  0  0
 24 27  1  0  0  0  0
 20 28  1  0  0  0  0
 28 29  4  0  0  0  0
 29 30  4  0  0  0  0
 30 31  4  0  0  0  0
 31 32  4  0  0  0  0
 32 33  4  0  0  0  0
 28 33  4  0  0  0  0
 31 34  1  0  0  0  0
M  END
>  <MOL_ID>
62
>  <Name_of_compounds>
pimozide
>  <Activity_Profiles>
1 1 1 1 1
>  <INITIAL_ID>
1310

>  <SUM_activity>
5

$$$$

  Marvin  08130811232D          

 21 23  0  0  0  0            999 V2000
    9.0080    4.5169    0.0000 C   0  0  0  0  0  0  0  0  0  0  0  0
    9.0080    3.6919    0.0000 N   0  0  0  0  0  0  0  0  0  0  0  0
    9.7225    3.2794    0.0000 C   0  0  0  0  0  0  0  0  0  0  0  0
    8.2935    3.2794    0.0000 C   0  0  0  0  0  0  0  0  0  0  0  0
    8.2935    2.4544    0.0000 C   0  0  0  0  0  0  0  0  0  0  0  0
    7.5791    2.0419    0.0000 C   0  0  0  0  0  0  0  0  0  0  0  0
    7.5791    1.2169    0.0000 C   0  0  0  0  0  0  0  0  0  0  0  0
    8.3224    0.8589    0.0000 C   0  0  0  0  0  0  0  0  0  0  0  0
    8.9271    1.4201    0.0000 C   0  0  0  0  0  0  0  0  0  0  0  0
    9.7155    1.1769    0.0000 C   0  0  0  0  0  0  0  0  0  0  0  0
    9.8991    0.3726    0.0000 C   0  0  0  0  0  0  0  0  0  0  0  0
    9.2943   -0.1885    0.0000 C   0  0  0  0  0  0  0  0  0  0  0  0
    8.5060    0.0546    0.0000 C   0  0  0  0  0  0  0  0  0  0  0  0
    7.9916   -0.5904    0.0000 C   0  0  0  0  0  0  0  0  0  0  0  0
    7.1666   -0.5904    0.0000 C   0  0  0  0  0  0  0  0  0  0  0  0
    6.6522    0.0546    0.0000 C   0  0  0  0  0  0  0  0  0  0  0  0
    6.8358    0.8589    0.0000 C   0  0  0  0  0  0  0  0  0  0  0  0
    6.2310    1.4201    0.0000 C   0  0  0  0  0  0  0  0  0  0  0  0
    5.4427    1.1769    0.0000 C   0  0  0  0  0  0  0  0  0  0  0  0
    5.2591    0.3726    0.0000 C   0  0  0  0  0  0  0  0  0  0  0  0
    5.8639   -0.1885    0.0000 C   0  0  0  0  0  0  0  0  0  0  0  0
  1  2  1  0  0  0  0
  2  3  1  0  0  0  0
  2  4  1  0  0  0  0
  4  5  1  0  0  0  0
  5  6  1  0  0  0  0
  6  7  2  0  0  0  0
  7  8  1  0  0  0  0
  8  9  4  0  0  0  0
  9 10  4  0  0  0  0
 10 11  4  0  0  0  0
 11 12  4  0  0  0  0
 12 13  4  0  0  0  0
  8 13  4  0  0  0  0
 13 14  1  0  0  0  0
 14 15  2  0  0  0  0
 15 16  1  0  0  0  0
 16 17  4  0  0  0  0
  7 17  1  0  0  0  0
 17 18  4  0  0  0  0
 18 19  4  0  0  0  0
 19 20  4  0  0  0  0
 20 21  4  0  0  0  0
 16 21  4  0  0  0  0
M  END
>  <MOL_ID>
81
>  <Name_of_compounds>
Cyclobenzaprine
>  <Activity_Profiles>
1 1 1 1 1
>  <INITIAL_ID>
1350

>  <SUM_activity>
5

$$$$

  Marvin  08130811232D          

 34 38  0  0  0  0            999 V2000
   11.9484    4.1322    0.0000 C   0  0  0  0  0  0  0  0  0  0  0  0
   11.2339    3.7197    0.0000 C   0  0  0  0  0  0  0  0  0  0  0  0
   11.2339    2.8947    0.0000 C   0  0  0  0  0  0  0  0  0  0  0  0
   10.5194    2.4822    0.0000 C   0  0  0  0  0  0  0  0  0  0  0  0
   10.5194    1.6572    0.0000 O   0  0  0  0  0  0  0  0  0  0  0  0
    9.8050    2.8947    0.0000 N   0  0  0  0  0  0  0  0  0  0  0  0
    9.0203    2.6397    0.0000 C   0  0  0  0  0  0  0  0  0  0  0  0
    8.5354    3.3072    0.0000 C   0  0  0  0  0  0  0  0  0  0  0  0
    9.0203    3.9746    0.0000 S   0  0  0  0  0  0  0  0  0  0  0  0
    9.8050    3.7197    0.0000 C   0  0  0  0  0  0  0  0  0  0  0  0
   10.5194    4.1322    0.0000 N   0  0  0  0  0  0  0  0  0  0  0  0
   11.9484    2.4822    0.0000 C   0  0  0  0  0  0  0  0  0  0  0  0
   12.6628    2.8947    0.0000 C   0  0  0  0  0  0  0  0  0  0  0  0
   13.3773    2.4822    0.0000 N   0  0  0  0  0  0  0  0  0  0  0  0
   14.0918    2.8947    0.0000 C   0  0  0  0  0  0  0  0  0  0  0  0
   14.8062    2.4822    0.0000 C   0  0  0  0  0  0  0  0  0  0  0  0
   14.8062    1.6572    0.0000 C   0  0  0  0  0  0  0  0  0  0  0  0
   15.5207    1.2447    0.0000 C   0  0  0  0  0  0  0  0  0  0  0  0
   16.2352    1.6572    0.0000 C   0  0  0  0  0  0  0  0  0  0  0  0
   16.2352    2.4822    0.0000 C   0  0  0  0  0  0  0  0  0  0  0  0
   16.9497    2.8947    0.0000 C   0  0  0  0  0  0  0  0  0  0  0  0
   17.6641    2.4822    0.0000 C   0  0  0  0  0  0  0  0  0  0  0  0
   17.6641    1.6572    0.0000 C   0  0  0  0  0  0  0  0  0  0  0  0
   16.9497    1.2447    0.0000 C   0  0  0  0  0  0  0  0  0  0  0  0
   18.3786    2.8947    0.0000 F   0  0  0  0  0  0  0  0  0  0  0  0
   15.5207    0.4197    0.0000 C   0  0  0  0  0  0  0  0  0  0  0  0
   16.2352    0.0072    0.0000 C   0  0  0  0  0  0  0  0  0  0  0  0
   16.2352   -0.8178    0.0000 C   0  0  0  0  0  0  0  0  0  0  0  0
   15.5207   -1.2303    0.0000 C   0  0  0  0  0  0  0  0  0  0  0  0
   14.8062   -0.8178    0.0000 C   0  0  0  0  0  0  0  0  0  0  0  0
   14.8062    0.0072    0.0000 C   0  0  0  0  0  0  0  0  0  0  0  0
   15.5207   -2.0553    0.0000 F   0  0  0  0  0  0  0  0  0  0  0  0
   14.0918    1.2447    0.0000 C   0  0  0  0  0  0  0  0  0  0  0  0
   13.3773    1.6572    0.0000 C   0  0  0  0  0  0  0  0  0  0  0  0
  1  2  1  0  0  0  0
  2  3  2  0  0  0  0
  3  4  1  0  0  0  0
  4  5  2  0  0  0  0
  4  6  1  0  0  0  0
  6  7  1  0  0  0  0
  7  8  2  0  0  0  0
  8  9  1  0  0  0  0
  9 10  1  0  0  0  0
  6 10  1  0  0  0  0
 10 11  2  0  0  0  0
  2 11  1  0  0  0  0
  3 12  1  0  0  0  0
 12 13  1  0  0  0  0
 13 14  1  0  0  0  0
 14 15  1  0  0  0  0
 15 16  1  0  0  0  0
 16 17  1  0  0  0  0
 17 18  2  0  0  0  0
 18 19  1  0  0  0  0
 19 20  4  0  0  0  0
 20 21  4  0  0  0  0
 21 22  4  0  0  0  0
 22 23  4  0  0  0  0
 23 24  4  0  0  0  0
 19 24  4  0  0  0  0
 22 25  1  0  0  0  0
 18 26  1  0  0  0  0
 26 27  4  0  0  0  0
 27 28  4  0  0  0  0
 28 29  4  0  0  0  0
 29 30  4  0  0  0  0
 30 31  4  0  0  0  0
 26 31  4  0  0  0  0
 29 32  1  0  0  0  0
 17 33  1  0  0  0  0
 33 34  1  0  0  0  0
 14 34  1  0  0  0  0
M  END
>  <MOL_ID>
26
>  <Name_of_compounds>
Ritanserin
>  <Activity_Profiles>
1 1 1 1 1
>  <INITIAL_ID>
127

>  <SUM_activity>
5

$$$$

  Marvin  08130811232D          

 22 25  0  0  0  0            999 V2000
    7.0479    4.8633    0.0000 Cl  0  0  0  0  0  0  0  0  0  0  0  0
    6.2596    4.6201    0.0000 C   0  0  0  0  0  0  0  0  0  0  0  0
    5.6548    5.1812    0.0000 C   0  0  0  0  0  0  0  0  0  0  0  0
    4.8664    4.9381    0.0000 C   0  0  0  0  0  0  0  0  0  0  0  0
    4.6829    4.1337    0.0000 C   0  0  0  0  0  0  0  0  0  0  0  0
    3.9396    3.7758    0.0000 N   0  0  0  0  0  0  0  0  0  0  0  0
    3.1963    4.1337    0.0000 C   0  0  0  0  0  0  0  0  0  0  0  0
    2.5915    3.5726    0.0000 C   0  0  0  0  0  0  0  0  0  0  0  0
    1.8032    3.8158    0.0000 C   0  0  0  0  0  0  0  0  0  0  0  0
    1.6196    4.6201    0.0000 C   0  0  0  0  0  0  0  0  0  0  0  0
    2.2243    5.1812    0.0000 C   0  0  0  0  0  0  0  0  0  0  0  0
    3.0127    4.9381    0.0000 C   0  0  0  0  0  0  0  0  0  0  0  0
    3.5271    5.5831    0.0000 C   0  0  0  0  0  0  0  0  0  0  0  0
    3.1691    6.3264    0.0000 N   0  0  0  0  0  0  0  0  0  0  0  0
    2.3464    6.3880    0.0000 C   0  0  0  0  0  0  0  0  0  0  0  0
    1.9885    7.1313    0.0000 C   0  0  0  0  0  0  0  0  0  0  0  0
    2.4532    7.8130    0.0000 N   0  0  0  0  0  0  0  0  0  0  0  0
    3.2759    7.7513    0.0000 C   0  0  0  0  0  0  0  0  0  0  0  0
    3.6339    7.0080    0.0000 C   0  0  0  0  0  0  0  0  0  0  0  0
    4.3521    5.5831    0.0000 N   0  0  0  0  0  0  0  0  0  0  0  0
    5.2876    3.5726    0.0000 C   0  0  0  0  0  0  0  0  0  0  0  0
    6.0760    3.8158    0.0000 C   0  0  0  0  0  0  0  0  0  0  0  0
  1  2  1  0  0  0  0
  2  3  4  0  0  0  0
  3  4  4  0  0  0  0
  4  5  4  0  0  0  0
  5  6  1  0  0  0  0
  6  7  1  0  0  0  0
  7  8  4  0  0  0  0
  8  9  4  0  0  0  0
  9 10  4  0  0  0  0
 10 11  4  0  0  0  0
  7 12  4  0  0  0  0
 11 12  4  0  0  0  0
 12 13  1  0  0  0  0
 13 14  1  0  0  0  0
 14 15  1  0  0  0  0
 15 16  1  0  0  0  0
 16 17  1  0  0  0  0
 17 18  1  0  0  0  0
 18 19  1  0  0  0  0
 14 19  1  0  0  0  0
 13 20  2  0  0  0  0
  4 20  1  0  0  0  0
  5 21  4  0  0  0  0
 21 22  4  0  0  0  0
  2 22  4  0  0  0  0
M  END
>  <MOL_ID>
24
>  <Name_of_compounds>
N-desmethylclozappine
>  <Activity_Profiles>
1 1 1 1 1
>  <INITIAL_ID>
125

>  <SUM_activity>
5

$$$$

  Marvin  08130811232D          

 29 32  0  0  0  0            999 V2000
   -5.3955    4.6513    0.0000 C   0  0  0  0  0  0  0  0  0  0  0  0
   -4.6810    4.2388    0.0000 C   0  0  0  0  0  0  0  0  0  0  0  0
   -4.6810    3.4138    0.0000 N   0  0  0  0  0  0  0  0  0  0  0  0
   -5.3955    3.0013    0.0000 C   0  0  0  0  0  0  0  0  0  0  0  0
   -6.1100    3.4138    0.0000 C   0  0  0  0  0  0  0  0  0  0  0  0
   -6.1100    4.2388    0.0000 C   0  0  0  0  0  0  0  0  0  0  0  0
   -6.8244    4.6513    0.0000 C   0  0  0  0  0  0  0  0  0  0  0  0
   -6.8244    5.4763    0.0000 O   0  0  0  0  0  0  0  0  0  0  0  0
   -7.5389    4.2388    0.0000 C   0  0  0  0  0  0  0  0  0  0  0  0
   -7.5389    3.4138    0.0000 C   0  0  0  0  0  0  0  0  0  0  0  0
   -8.2534    3.0013    0.0000 C   0  0  0  0  0  0  0  0  0  0  0  0
   -8.9678    3.4138    0.0000 C   0  0  0  0  0  0  0  0  0  0  0  0
   -8.9678    4.2388    0.0000 C   0  0  0  0  0  0  0  0  0  0  0  0
   -8.2534    4.6513    0.0000 C   0  0  0  0  0  0  0  0  0  0  0  0
   -9.6823    3.0013    0.0000 F   0  0  0  0  0  0  0  0  0  0  0  0
   -3.9665    3.0013    0.0000 C   0  0  0  0  0  0  0  0  0  0  0  0
   -3.2521    3.4138    0.0000 C   0  0  0  0  0  0  0  0  0  0  0  0
   -2.5376    3.0013    0.0000 N   0  0  0  0  0  0  0  0  0  0  0  0
   -1.8231    3.4138    0.0000 C   0  0  0  0  0  0  0  0  0  0  0  0
   -1.8231    4.2388    0.0000 O   0  0  0  0  0  0  0  0  0  0  0  0
   -1.1087    3.0013    0.0000 C   0  0  0  0  0  0  0  0  0  0  0  0
   -0.3942    3.4138    0.0000 C   0  0  0  0  0  0  0  0  0  0  0  0
    0.3203    3.0013    0.0000 C   0  0  0  0  0  0  0  0  0  0  0  0
    0.3203    2.1763    0.0000 C   0  0  0  0  0  0  0  0  0  0  0  0
   -0.3942    1.7638    0.0000 C   0  0  0  0  0  0  0  0  0  0  0  0
   -1.1087    2.1763    0.0000 C   0  0  0  0  0  0  0  0  0  0  0  0
   -1.8231    1.7638    0.0000 N   0  0  0  0  0  0  0  0  0  0  0  0
   -2.5376    2.1763    0.0000 C   0  0  0  0  0  0  0  0  0  0  0  0
   -3.2521    1.7638    0.0000 O   0  0  0  0  0  0  0  0  0  0  0  0
  1  2  1  0  0  0  0
  2  3  1  0  0  0  0
  3  4  1  0  0  0  0
  4  5  1  0  0  0  0
  5  6  1  0  0  0  0
  1  6  1  0  0  0  0
  6  7  1  0  0  0  0
  7  8  2  0  0  0  0
  7  9  1  0  0  0  0
  9 10  4  0  0  0  0
 10 11  4  0  0  0  0
 11 12  4  0  0  0  0
 12 13  4  0  0  0  0
 13 14  4  0  0  0  0
  9 14  4  0  0  0  0
 12 15  1  0  0  0  0
  3 16  1  0  0  0  0
 16 17  1  0  0  0  0
 17 18  1  0  0  0  0
 18 19  1  0  0  0  0
 19 20  2  0  0  0  0
 19 21  1  0  0  0  0
 21 22  4  0  0  0  0
 22 23  4  0  0  0  0
 23 24  4  0  0  0  0
 24 25  4  0  0  0  0
 25 26  4  0  0  0  0
 21 26  4  0  0  0  0
 26 27  1  0  0  0  0
 27 28  1  0  0  0  0
 18 28  1  0  0  0  0
 28 29  2  0  0  0  0
M  END
>  <MOL_ID>
42
>  <Name_of_compounds>
Ketanserin
>  <Activity_Profiles>
1 1 1 1 1
>  <INITIAL_ID>
609

>  <SUM_activity>
5

$$$$

  Marvin  08130811232D          

 23 26  0  0  0  0            999 V2000
   -1.6949   -2.5090    0.0000 Cl  0  0  0  0  0  0  0  0  0  0  0  0
   -0.9065   -2.2658    0.0000 C   0  0  0  0  0  0  0  0  0  0  0  0
   -0.7229   -1.4615    0.0000 C   0  0  0  0  0  0  0  0  0  0  0  0
    0.0654   -1.2183    0.0000 C   0  0  0  0  0  0  0  0  0  0  0  0
    0.6702   -1.7795    0.0000 C   0  0  0  0  0  0  0  0  0  0  0  0
    1.4135   -1.4215    0.0000 O   0  0  0  0  0  0  0  0  0  0  0  0
    2.1568   -1.7795    0.0000 C   0  0  0  0  0  0  0  0  0  0  0  0
    2.7615   -1.2183    0.0000 N   0  0  0  0  0  0  0  0  0  0  0  0
    3.5499   -1.4615    0.0000 C   0  0  0  0  0  0  0  0  0  0  0  0
    3.7335   -2.2658    0.0000 C   0  0  0  0  0  0  0  0  0  0  0  0
    3.1287   -2.8270    0.0000 C   0  0  0  0  0  0  0  0  0  0  0  0
    2.3404   -2.5838    0.0000 C   0  0  0  0  0  0  0  0  0  0  0  0
    1.8260   -3.2288    0.0000 C   0  0  0  0  0  0  0  0  0  0  0  0
    2.1839   -3.9721    0.0000 N   0  0  0  0  0  0  0  0  0  0  0  0
    3.0066   -4.0337    0.0000 C   0  0  0  0  0  0  0  0  0  0  0  0
    3.3646   -4.7770    0.0000 C   0  0  0  0  0  0  0  0  0  0  0  0
    2.8998   -5.4587    0.0000 N   0  0  0  0  0  0  0  0  0  0  0  0
    3.2578   -6.2020    0.0000 C   0  0  0  0  0  0  0  0  0  0  0  0
    2.0771   -5.3970    0.0000 C   0  0  0  0  0  0  0  0  0  0  0  0
    1.7192   -4.6537    0.0000 C   0  0  0  0  0  0  0  0  0  0  0  0
    1.0010   -3.2288    0.0000 N   0  0  0  0  0  0  0  0  0  0  0  0
    0.4866   -2.5838    0.0000 C   0  0  0  0  0  0  0  0  0  0  0  0
   -0.3018   -2.8270    0.0000 C   0  0  0  0  0  0  0  0  0  0  0  0
  1  2  1  0  0  0  0
  2  3  4  0  0  0  0
  3  4  4  0  0  0  0
  4  5  4  0  0  0  0
  5  6  1  0  0  0  0
  6  7  1  0  0  0  0
  7  8  4  0  0  0  0
  8  9  4  0  0  0  0
  9 10  4  0  0  0  0
 10 11  4  0  0  0  0
 11 12  4  0  0  0  0
  7 12  4  0  0  0  0
 12 13  1  0  0  0  0
 13 14  1  0  0  0  0
 14 15  1  0  0  0  0
 15 16  1  0  0  0  0
 16 17  1  0  0  0  0
 17 18  1  0  0  0  0
 17 19  1  0  0  0  0
 19 20  1  0  0  0  0
 14 20  1  0  0  0  0
 13 21  2  0  0  0  0
  5 22  4  0  0  0  0
 21 22  1  0  0  0  0
 22 23  4  0  0  0  0
  2 23  4  0  0  0  0
M  END
>  <MOL_ID>
22
>  <Name_of_compounds>
Fumarate
>  <Activity_Profiles>
1 1 1 1 1
>  <INITIAL_ID>
123

>  <SUM_activity>
5

$$$$

  Marvin  08130811232D          

 28 31  0  0  0  0            999 V2000
    9.3136   -4.6996    0.0000 C   0  0  0  0  0  0  0  0  0  0  0  0
    8.5992   -4.2871    0.0000 N   0  0  0  0  0  0  0  0  0  0  0  0
    7.8847   -4.6996    0.0000 C   0  0  0  0  0  0  0  0  0  0  0  0
    7.1702   -4.2871    0.0000 C   0  0  0  0  0  0  0  0  0  0  0  0
    7.1702   -3.4621    0.0000 N   0  0  0  0  0  0  0  0  0  0  0  0
    7.8847   -3.0496    0.0000 C   0  0  0  0  0  0  0  0  0  0  0  0
    8.5992   -3.4621    0.0000 C   0  0  0  0  0  0  0  0  0  0  0  0
    6.4558   -3.0496    0.0000 C   0  0  0  0  0  0  0  0  0  0  0  0
    6.4558   -2.2246    0.0000 C   0  0  0  0  0  0  0  0  0  0  0  0
    5.7413   -1.8121    0.0000 C   0  0  0  0  0  0  0  0  0  0  0  0
    5.7413   -0.9871    0.0000 N   0  0  0  0  0  0  0  0  0  0  0  0
    6.4558   -0.5746    0.0000 C   0  0  0  0  0  0  0  0  0  0  0  0
    7.1702   -0.9871    0.0000 C   0  0  0  0  0  0  0  0  0  0  0  0
    7.8847   -0.5746    0.0000 C   0  0  0  0  0  0  0  0  0  0  0  0
    7.8847    0.2504    0.0000 C   0  0  0  0  0  0  0  0  0  0  0  0
    7.1702    0.6629    0.0000 C   0  0  0  0  0  0  0  0  0  0  0  0
    6.4558    0.2504    0.0000 C   0  0  0  0  0  0  0  0  0  0  0  0
    5.7413    0.6629    0.0000 S   0  0  0  0  0  0  0  0  0  0  0  0
    5.0268    0.2504    0.0000 C   0  0  0  0  0  0  0  0  0  0  0  0
    5.0268   -0.5746    0.0000 C   0  0  0  0  0  0  0  0  0  0  0  0
    4.3123   -0.9871    0.0000 C   0  0  0  0  0  0  0  0  0  0  0  0
    3.5979   -0.5746    0.0000 C   0  0  0  0  0  0  0  0  0  0  0  0
    3.5979    0.2504    0.0000 C   0  0  0  0  0  0  0  0  0  0  0  0
    4.3123    0.6629    0.0000 C   0  0  0  0  0  0  0  0  0  0  0  0
    2.8834   -0.9871    0.0000 C   0  0  0  0  0  0  0  0  0  0  0  0
    2.4709   -0.2726    0.0000 F   0  0  0  0  0  0  0  0  0  0  0  0
    2.1689   -1.3996    0.0000 F   0  0  0  0  0  0  0  0  0  0  0  0
    3.2959   -1.7015    0.0000 F   0  0  0  0  0  0  0  0  0  0  0  0
  1  2  1  0  0  0  0
  2  3  1  0  0  0  0
  3  4  1  0  0  0  0
  4  5  1  0  0  0  0
  5  6  1  0  0  0  0
  6  7  1  0  0  0  0
  2  7  1  0  0  0  0
  5  8  1  0  0  0  0
  8  9  1  0  0  0  0
  9 10  1  0  0  0  0
 10 11  1  0  0  0  0
 11 12  1  0  0  0  0
 12 13  4  0  0  0  0
 13 14  4  0  0  0  0
 14 15  4  0  0  0  0
 15 16  4  0  0  0  0
 16 17  4  0  0  0  0
 12 17  4  0  0  0  0
 17 18  1  0  0  0  0
 18 19  1  0  0  0  0
 19 20  4  0  0  0  0
 11 20  1  0  0  0  0
 20 21  4  0  0  0  0
 21 22  4  0  0  0  0
 22 23  4  0  0  0  0
 23 24  4  0  0  0  0
 19 24  4  0  0  0  0
 22 25  1  0  0  0  0
 25 26  1  0  0  0  0
 25 27  1  0  0  0  0
 25 28  1  0  0  0  0
M  END
>  <MOL_ID>
23
>  <Name_of_compounds>
Trifluoperazine
>  <Activity_Profiles>
1 1 1 1 1
>  <INITIAL_ID>
124

>  <SUM_activity>
5

$$$$

  Marvin  08130811232D          

 27 31  0  0  0  0            999 V2000
   -1.9380    4.6731    0.0000 C   0  0  0  0  0  0  0  0  0  0  0  0
   -2.4790    4.0504    0.0000 C   0  0  0  0  0  0  0  0  0  0  0  0
   -3.1018    4.5914    0.0000 C   0  0  0  0  0  0  0  0  0  0  0  0
   -3.0201    3.4276    0.0000 C   0  0  0  0  0  0  0  0  0  0  0  0
   -1.8562    3.5093    0.0000 C   0  0  0  0  0  0  0  0  0  0  0  0
   -1.4561    2.7878    0.0000 C   0  0  0  0  0  0  0  0  0  0  0  0
   -0.6312    2.7737    0.0000 C   0  0  0  0  0  0  0  0  0  0  0  0
   -0.2065    3.4809    0.0000 N   0  0  0  0  0  0  0  0  0  0  0  0
    0.6184    3.4668    0.0000 C   0  0  0  0  0  0  0  0  0  0  0  0
    0.9311    4.1225    0.0000 C   0  0  0  0  0  0  0  0  0  0  0  0
    1.7152    3.8658    0.0000 C   0  0  0  0  0  0  0  0  0  0  0  0
    1.7627    3.0421    0.0000 C   0  0  0  0  0  0  0  0  0  0  0  0
    2.4997    2.6715    0.0000 C   0  0  0  0  0  0  0  0  0  0  0  0
    3.1892    3.1244    0.0000 C   0  0  0  0  0  0  0  0  0  0  0  0
    3.1417    3.9481    0.0000 C   0  0  0  0  0  0  0  0  0  0  0  0
    2.4047    4.3187    0.0000 C   0  0  0  0  0  0  0  0  0  0  0  0
    2.4805    5.1403    0.0000 C   0  0  0  0  0  0  0  0  0  0  0  0
    1.8854    5.7117    0.0000 C   0  0  0  0  0  0  0  0  0  0  0  0
    1.0676    5.6028    0.0000 C   0  0  0  0  0  0  0  0  0  0  0  0
    0.6429    4.8955    0.0000 C   0  0  0  0  0  0  0  0  0  0  0  0
   -0.1819    4.9097    0.0000 C   0  0  0  0  0  0  0  0  0  0  0  0
   -0.5821    5.6311    0.0000 C   0  0  0  0  0  0  0  0  0  0  0  0
   -0.1574    6.3384    0.0000 C   0  0  0  0  0  0  0  0  0  0  0  0
    0.6675    6.3242    0.0000 C   0  0  0  0  0  0  0  0  0  0  0  0
   -0.6067    4.2024    0.0000 C   0  0  0  0  0  0  0  0  0  0  0  0
   -1.4315    4.2166    0.0000 C   0  0  0  0  0  0  0  0  0  0  0  0
   -2.4972    2.9899    0.0000 O   0  0  0  0  0  0  0  0  0  0  0  0
  1  2  1  0  0  0  0
  2  3  1  0  0  0  0
  2  4  1  0  0  0  0
  2  5  1  0  0  0  0
  5  6  1  0  0  0  0
  6  7  1  0  0  0  0
  7  8  1  0  0  0  0
  8  9  1  0  0  0  0
  9 10  1  0  0  0  0
 10 11  1  0  0  0  0
 11 12  4  0  0  0  0
 12 13  4  0  0  0  0
 13 14  4  0  0  0  0
 14 15  4  0  0  0  0
 15 16  4  0  0  0  0
 11 16  4  0  0  0  0
 16 17  1  0  0  0  0
 17 18  1  0  0  0  0
 18 19  1  0  0  0  0
 19 20  4  0  0  0  0
 10 20  1  0  0  0  0
 20 21  4  0  0  0  0
 21 22  4  0  0  0  0
 22 23  4  0  0  0  0
 23 24  4  0  0  0  0
 19 24  4  0  0  0  0
 21 25  1  0  0  0  0
  8 25  1  0  0  0  0
 25 26  1  0  0  0  0
  5 26  1  0  0  0  0
  5 27  1  0  0  0  0
M  END
>  <MOL_ID>
54
>  <Name_of_compounds>
Butaclamol
>  <Activity_Profiles>
1 1 1 1 1
>  <INITIAL_ID>
1302

>  <SUM_activity>
5

$$$$

  Marvin  08130811232D          

 21 23  0  0  0  0            999 V2000
    8.1314   -0.6482    0.0000 C   0  0  0  0  0  0  0  0  0  0  0  0
    7.4169   -1.0607    0.0000 N   0  0  0  0  0  0  0  0  0  0  0  0
    7.4169   -1.8857    0.0000 C   0  0  0  0  0  0  0  0  0  0  0  0
    6.7024   -0.6482    0.0000 C   0  0  0  0  0  0  0  0  0  0  0  0
    5.9879   -1.0607    0.0000 C   0  0  0  0  0  0  0  0  0  0  0  0
    5.2735   -0.6482    0.0000 C   0  0  0  0  0  0  0  0  0  0  0  0
    5.2735    0.1768    0.0000 C   0  0  0  0  0  0  0  0  0  0  0  0
    5.9879    0.5893    0.0000 C   0  0  0  0  0  0  0  0  0  0  0  0
    6.7024    0.1768    0.0000 C   0  0  0  0  0  0  0  0  0  0  0  0
    7.4169    0.5893    0.0000 C   0  0  0  0  0  0  0  0  0  0  0  0
    7.4169    1.4143    0.0000 C   0  0  0  0  0  0  0  0  0  0  0  0
    6.7024    1.8268    0.0000 C   0  0  0  0  0  0  0  0  0  0  0  0
    5.9879    1.4143    0.0000 C   0  0  0  0  0  0  0  0  0  0  0  0
    5.2735    1.8268    0.0000 S   0  0  0  0  0  0  0  0  0  0  0  0
    4.5590    1.4143    0.0000 C   0  0  0  0  0  0  0  0  0  0  0  0
    4.5590    0.5893    0.0000 C   0  0  0  0  0  0  0  0  0  0  0  0
    3.8445    0.1768    0.0000 C   0  0  0  0  0  0  0  0  0  0  0  0
    3.1301    0.5893    0.0000 C   0  0  0  0  0  0  0  0  0  0  0  0
    3.1301    1.4143    0.0000 C   0  0  0  0  0  0  0  0  0  0  0  0
    3.8445    1.8268    0.0000 C   0  0  0  0  0  0  0  0  0  0  0  0
    2.4156    0.1768    0.0000 Cl  0  0  0  0  0  0  0  0  0  0  0  0
  1  2  1  0  0  0  0
  2  3  1  0  0  0  0
  2  4  1  0  0  0  0
  4  5  1  0  0  0  0
  6  5  1  4  0  0  0
  6  7  2  0  0  0  0
  7  8  1  0  0  0  0
  8  9  4  0  0  0  0
  9 10  4  0  0  0  0
 10 11  4  0  0  0  0
 11 12  4  0  0  0  0
 12 13  4  0  0  0  0
  8 13  4  0  0  0  0
 13 14  1  0  0  0  0
 14 15  1  0  0  0  0
 15 16  4  0  0  0  0
  7 16  1  0  0  0  0
 16 17  4  0  0  0  0
 17 18  4  0  0  0  0
 18 19  4  0  0  0  0
 19 20  4  0  0  0  0
 15 20  4  0  0  0  0
 18 21  1  0  0  0  0
M  END
>  <MOL_ID>
55
>  <Name_of_compounds>
chlorprothixene
>  <Activity_Profiles>
1 1 1 1 1
>  <INITIAL_ID>
1303

>  <SUM_activity>
5

$$$$

  Marvin  08130811232D          

 22 25  0  0  0  0            999 V2000
    4.2755   -1.3150    0.0000 C   0  0  0  0  0  0  0  0  0  0  0  0
    4.2755   -0.4900    0.0000 C   0  0  0  0  0  0  0  0  0  0  0  0
    3.5610   -0.0775    0.0000 C   0  0  0  0  0  0  0  0  0  0  0  0
    3.5610    0.7475    0.0000 N   0  0  0  0  0  0  0  0  0  0  0  0
    4.2755    1.1600    0.0000 C   0  0  0  0  0  0  0  0  0  0  0  0
    4.2755    1.9850    0.0000 C   0  0  0  0  0  0  0  0  0  0  0  0
    3.5610    2.3975    0.0000 C   0  0  0  0  0  0  0  0  0  0  0  0
    2.8466    1.9850    0.0000 C   0  0  0  0  0  0  0  0  0  0  0  0
    2.8466    1.1600    0.0000 C   0  0  0  0  0  0  0  0  0  0  0  0
    2.1321    0.7475    0.0000 C   0  0  0  0  0  0  0  0  0  0  0  0
    1.4176    1.1600    0.0000 C   0  0  0  0  0  0  0  0  0  0  0  0
    0.6330    0.9051    0.0000 C   0  0  0  0  0  0  0  0  0  0  0  0
    0.1481    1.5725    0.0000 N   0  0  0  0  0  0  0  0  0  0  0  0
    0.6330    2.2399    0.0000 C   0  0  0  0  0  0  0  0  0  0  0  0
    0.4615    3.0469    0.0000 C   0  0  0  0  0  0  0  0  0  0  0  0
    1.0746    3.5989    0.0000 C   0  0  0  0  0  0  0  0  0  0  0  0
    1.8592    3.3440    0.0000 C   0  0  0  0  0  0  0  0  0  0  0  0
    2.1321    2.3975    0.0000 C   0  0  0  0  0  0  0  0  0  0  0  0
    1.4176    1.9850    0.0000 C   0  0  0  0  0  0  0  0  0  0  0  0
    4.9900    2.3975    0.0000 C   0  0  0  0  0  0  0  0  0  0  0  0
    4.9900    3.2225    0.0000 S   0  0  0  0  0  0  0  0  0  0  0  0
    5.7044    3.6350    0.0000 C   0  0  0  0  0  0  0  0  0  0  0  0
  1  2  1  0  0  0  0
  2  3  1  0  0  0  0
  3  4  1  0  0  0  0
  4  5  1  0  0  0  0
  5  6  1  0  0  0  0
  6  7  1  0  0  0  0
  7  8  1  0  0  0  0
  8  9  1  0  0  0  0
  4  9  1  0  0  0  0
  9 10  1  0  0  0  0
 10 11  1  0  0  0  0
 11 12  4  0  0  0  0
 12 13  4  0  0  0  0
 13 14  4  0  0  0  0
 14 15  4  0  0  0  0
 15 16  4  0  0  0  0
 16 17  4  0  0  0  0
 17 18  4  0  0  0  0
  8 18  1  0  0  0  0
 18 19  4  0  0  0  0
 11 19  4  0  0  0  0
 14 19  4  0  0  0  0
  6 20  1  0  0  0  0
 20 21  1  0  0  0  0
 21 22  1  0  0  0  0
M  STY  1   1 DAT
M  SAL   1  1  13
M  SDT   1 MRV_IMPLICIT_H                                        
M  SDD   1     0.0000    0.0000    DR    ALL  0       0  
M  SED   1 IMPL_H1
M  END
>  <MOL_ID>
44
>  <Name_of_compounds>
Pergolide
>  <Activity_Profiles>
1 1 1 1 1
>  <INITIAL_ID>
631

>  <SUM_activity>
5

$$$$

  Marvin  08130811232D          

 30 33  0  0  0  0            999 V2000
    9.2167   -1.0313    0.0000 C   0  0  0  0  0  0  0  0  0  0  0  0
    9.9311   -1.4438    0.0000 C   0  0  0  0  0  0  0  0  0  0  0  0
    9.9311   -2.2688    0.0000 N   0  0  0  0  0  0  0  0  0  0  0  0
    9.2167   -2.6813    0.0000 C   0  0  0  0  0  0  0  0  0  0  0  0
    8.5022   -2.2688    0.0000 C   0  0  0  0  0  0  0  0  0  0  0  0
    8.5022   -1.4438    0.0000 N   0  0  0  0  0  0  0  0  0  0  0  0
    7.7877   -1.0313    0.0000 C   0  0  0  0  0  0  0  0  0  0  0  0
    7.0733   -1.4438    0.0000 C   0  0  0  0  0  0  0  0  0  0  0  0
    6.3588   -1.0313    0.0000 C   0  0  0  0  0  0  0  0  0  0  0  0
    6.3588   -0.2063    0.0000 C   0  0  0  0  0  0  0  0  0  0  0  0
    7.0733    0.2063    0.0000 C   0  0  0  0  0  0  0  0  0  0  0  0
    7.7877   -0.2062    0.0000 C   0  0  0  0  0  0  0  0  0  0  0  0
    8.5022    0.2063    0.0000 C   0  0  0  0  0  0  0  0  0  0  0  0
    8.5022    1.0313    0.0000 C   0  0  0  0  0  0  0  0  0  0  0  0
    7.7877    1.4438    0.0000 C   0  0  0  0  0  0  0  0  0  0  0  0
    7.0733    1.0312    0.0000 C   0  0  0  0  0  0  0  0  0  0  0  0
    6.3588    1.4438    0.0000 S   0  0  0  0  0  0  0  0  0  0  0  0
    5.6443    1.0313    0.0000 C   0  0  0  0  0  0  0  0  0  0  0  0
    5.6443    0.2063    0.0000 C   0  0  0  0  0  0  0  0  0  0  0  0
    4.9299   -0.2063    0.0000 C   0  0  0  0  0  0  0  0  0  0  0  0
    4.2154    0.2063    0.0000 C   0  0  0  0  0  0  0  0  0  0  0  0
    4.2154    1.0313    0.0000 C   0  0  0  0  0  0  0  0  0  0  0  0
    4.9299    1.4438    0.0000 C   0  0  0  0  0  0  0  0  0  0  0  0
    3.5009   -0.2062    0.0000 C   0  0  0  0  0  0  0  0  0  0  0  0
    3.0884    0.5082    0.0000 F   0  0  0  0  0  0  0  0  0  0  0  0
    2.7864   -0.6187    0.0000 F   0  0  0  0  0  0  0  0  0  0  0  0
    3.9134   -0.9207    0.0000 F   0  0  0  0  0  0  0  0  0  0  0  0
   10.6456   -2.6813    0.0000 C   0  0  0  0  0  0  0  0  0  0  0  0
   11.3601   -2.2688    0.0000 C   0  0  0  0  0  0  0  0  0  0  0  0
   12.0746   -2.6813    0.0000 O   0  0  0  0  0  0  0  0  0  0  0  0
  1  2  1  0  0  0  0
  2  3  1  0  0  0  0
  3  4  1  0  0  0  0
  4  5  1  0  0  0  0
  5  6  1  0  0  0  0
  1  6  1  0  0  0  0
  6  7  1  0  0  0  0
  7  8  1  0  0  0  0
  9  8  1  4  0  0  0
  9 10  2  0  0  0  0
 10 11  1  0  0  0  0
 11 12  4  0  0  0  0
 12 13  4  0  0  0  0
 13 14  4  0  0  0  0
 14 15  4  0  0  0  0
 15 16  4  0  0  0  0
 11 16  4  0  0  0  0
 16 17  1  0  0  0  0
 17 18  1  0  0  0  0
 18 19  4  0  0  0  0
 10 19  1  0  0  0  0
 19 20  4  0  0  0  0
 20 21  4  0  0  0  0
 21 22  4  0  0  0  0
 22 23  4  0  0  0  0
 18 23  4  0  0  0  0
 21 24  1  0  0  0  0
 24 25  1  0  0  0  0
 24 26  1  0  0  0  0
 24 27  1  0  0  0  0
  3 28  1  0  0  0  0
 28 29  1  0  0  0  0
 29 30  1  0  0  0  0
M  END
>  <MOL_ID>
53
>  <Name_of_compounds>
flupenthixol
>  <Activity_Profiles>
1 1 1 1 1
>  <INITIAL_ID>
1301

>  <SUM_activity>
5

$$$$